96
Lattice="10.234998135366 0.000000000000 0.000000000000 0.000000000000 10.152576724096 0.000000000000 0.000000000000 0.000000000000 10.606248980017" Properties=species:S:1:pos:R:3 pbc="T T T"
Hf 1.2392264650508609 1.1503192553496797 2.7800820663432293 
Hf 1.2388601530042562 1.1500579619602345 7.984211485068352 
Hf 6.2664540604839924 1.1509164682383248 2.7793276953330537 
Hf 6.269505957664398 1.1488635834876582 7.983483001955803 
Hf 3.791167799420039 8.811115791357762 2.4232716821384552 
Hf 3.7907372390675147 8.80979430602696 7.627997997767646 
Hf 8.81905823293738 8.809819490287191 2.424113800213938 
Hf 8.820849700879366 8.810718849593025 7.62659408910652 
Hf 1.2775190999634713 8.810361862496366 0.177787908404258 
Hf 1.2761730295841844 8.809501270468987 5.3822054034161395 
Hf 6.305315757818682 8.811246761591402 0.17760213197837532 
Hf 6.30587903420612 8.809054315855118 5.380766761168867 
Hf 3.7531095207944425 1.1499417621760586 5.025116788215265 
Hf 3.753501990980024 1.1511869943835968 10.229370275843472 
Hf 8.782403880269909 1.1500416670108373 5.024604588418212 
Hf 8.782684080837118 1.1501014709150434 10.230635063092523 
Hf 3.753192993348705 3.83139602079724 2.4240877840145254 
Hf 3.7526411349941946 3.82971260913326 7.628341435101456 
Hf 8.78269992515212 3.8299087056226804 2.4234009508170264 
Hf 8.783209919016683 3.8307883004390186 7.626712264736767 
Hf 1.2762069949486492 6.130188184371303 2.7795055279667196 
Hf 1.2765860409323573 6.131607466232029 7.982946443475496 
Hf 6.305016876557656 6.131143972631791 2.778807386688191 
Hf 6.30620194723232 6.13128312938392 7.983402395109888 
Hf 3.7908215146324604 6.131568070045605 5.025829373471814 
Hf 3.791100714626021 6.130558672455628 10.230544197257805 
Hf 8.820090440907611 6.13130876408186 5.025844044611409 
Hf 8.818752860819098 6.132344093302726 10.228898376093655 
Hf 1.238988344093314 3.828678171702567 0.17854322615670135 
Hf 1.2378606827340397 3.829562182608501 5.380323042603905 
Hf 6.2671191287251995 3.8293336936980165 0.178848233196827 
Hf 6.266168452352345 3.8297693449273797 5.382714106199506 
O 0.01871272658545967 0.22302608525384468 1.2437783296786968 
O 0.012984722973578666 0.223571853066547 6.441537577257084 
O 5.045424841243712 0.22171288183777568 1.2385631323433264 
O 5.045355833040537 0.22464316931173167 6.444747729832236 
O 5.012339648335594 9.736435288347694 3.9616391428031488 
O 5.01420056525037 9.733425178982484 9.165647406861025 
O 10.045620695541789 9.736794295229963 3.9635183697309886 
O 10.044061871187843 9.736901735079986 9.170290800943013 
O 2.499516631508967 9.733053292192013 3.8418210705123905 
O 2.50276533956619 9.73626027369163 9.04979597711215 
O 7.529699380484953 9.732017479188563 3.8393613393876933 
O 7.5278841654484205 9.72988139722286 9.047849673321092 
O 2.535163452811228 0.222129773430644 1.3622533080929544 
O 2.527854500036978 0.22601821797990368 6.569280875173661 
O 7.559384032028905 0.22808075344697665 1.3649412659615119 
O 7.560654718693308 0.22568319404844733 6.565328192904742 
O 2.534818058612259 4.754754562741241 3.9624426340159764 
O 2.530329908405046 4.756756381459982 9.163818215565302 
O 7.56044016153076 4.751561860530462 3.9662744873727083 
O 7.556164181321526 4.753025414484813 9.164142329235634 
O 2.497765531022425 5.206307095789841 1.237315248376281 
O 2.501071211945412 5.2058446419939575 6.445291333984329 
O 7.524343284265875 5.206749287237915 1.2412187894804672 
O 7.5272847308056265 5.203900131824446 6.450303586279179 
O 5.015796781625743 5.205617551093553 1.3603778634942714 
O 5.01648030776003 5.201505665213631 6.567914931781515 
O 10.045063790568456 5.20453304653458 1.3666740458525906 
O 10.042989179274368 5.205349070868061 6.560255726913504 
O 0.016266272937565333 4.75264804153416 3.8425174135426032 
O 0.013661322664624 4.752972244401922 9.05019478497542 
O 5.047763945562047 4.757709987557169 3.8408861062258652 
O 5.041427259962146 4.758326243314581 9.04994554546194 
O 0.6515806729454378 7.059145379194243 4.559145721986087 
O 0.646466632390991 7.062776131002604 9.761800372403309 
O 5.679947047068964 7.058205741662471 4.557683928731559 
O 5.675711273185037 7.060518117098832 9.76264672890099 
O 4.381074111248385 2.897698470806466 0.6440845113323034 
O 4.379596018251405 2.9030905585628344 5.854574309876174 
O 9.412231585938368 2.896079515760017 0.6486237068339606 
O 9.407872733810718 2.8978022853422516 5.847273413326141 
O 1.868182060288609 2.8979468862973974 1.9523007190638932 
O 1.8649706861135908 2.901859025186101 7.161315986397767 
O 6.893150818130279 2.900168976156698 1.9542274986061419 
O 6.898413151379831 2.9002424824949284 7.1585164593324775 
O 3.16687372956603 7.0620067913503135 3.2473189596951917 
O 3.164652423458292 7.061264807964628 8.458709453838722 
O 8.190660592623928 7.060126679985227 3.250910092097122 
O 8.192546803655116 7.061111861521606 8.454742472777168 
O 3.1631314888249515 7.8747799989637395 0.643759051765562 
O 3.1646381889611037 7.880624431402623 5.848177478943701 
O 8.198993778960887 7.8790749757337695 0.6481255452273227 
O 8.193888514923934 7.877984250451816 5.848570644297181 
O 1.8656564124160688 2.078449205062471 4.555094874223505 
O 1.8647406329729896 2.0806168521433945 9.762465446826402 
O 6.8969825976244445 2.081701912652337 4.5585056190574225 
O 6.896009255082864 2.081002813157004 9.755832602806983 
O 4.377587991598241 2.0853030386217517 3.2497260067774754 
O 4.376643200680083 2.0791114807966875 8.452476479555207 
O 9.407449228524081 2.0775790321759287 3.247342549122471 
O 9.40808667973183 2.080826485201681 8.453517321558122 
O 0.6499582532400052 7.875519622374255 1.9575121486461322 
O 0.6515848068155513 7.879417735826939 7.156223181245804 
O 5.6801728439290935 7.880276320176599 1.9558870751085662 
O 5.674186863624609 7.883574255201235 7.154141313333232 
