128
Lattice="20.0763846187 0.0 0.0 -10.0381923094 17.38665923 0.0 0.0 0.0 30.0" Properties=species:S:1:pos:R:3 pbc="T T T"
Ti 6.341815914887469 9.434036414383147 16.390413324962065 
N 4.7773143151359445 10.126505962948917 15.373710895986811 
N 0.310201140233295 1.1831137443786242 15.055726839953785 
N 2.2279610322820624 1.7528136812044042 14.929349683524405 
N 4.897361712700949 1.1275193509282528 15.03891363739587 
N 7.602858196532686 1.4897944956751277 14.906659097707648 
N 10.37248044308032 1.3998353585865322 15.189101864982854 
N 12.337723682996435 1.5182434006240835 15.356291612353237 
N 14.586724506604131 1.6318660374863445 15.069480215180286 
N 17.58204837088038 1.8602003824762365 14.744245612009633 
N -1.1124801092278023 3.386729796266577 14.903176019438394 
N 1.2017583670231788 3.6364030000547523 15.07964004150966 
N 3.813542939221185 3.599842450708272 14.852679640187578 
N 6.1172660316844025 3.4474432414351495 14.809124363768735 
N 8.783000210524248 3.7075482445420396 15.15223053962893 
N 11.374345674138606 3.7491119092794527 15.202896340854826 
N 13.8895721585723 3.4986741096660428 15.03388597502761 
N 16.32462494110622 3.5492134055876137 15.03626258988232 
N -2.3847129121480934 5.87330624594829 15.037775972650214 
N -0.35234088184625684 5.748189613000222 15.035763626605773 
N 2.417090769449857 5.874251891764474 15.03242958294325 
N 4.968425758710633 5.733755915111051 14.87204047893832 
N 7.7464036697050345 5.815299968756889 14.843045057593466 
N 9.935840756314144 5.7889117955027825 15.087951528129027 
N 12.440587931189688 5.57855930329819 14.703947634291213 
N 14.928459705581949 5.8888114812510315 14.806604750570393 
N -3.739687617927091 7.853378129088841 15.031157925898116 
N -0.990875204677917 7.758352252279886 14.975432218011122 
N 1.3137736418165182 8.038600981190669 15.023076340287549 
N 3.7590874805885153 7.9745090223361395 15.228105611921444 
N 6.208685662976977 7.76530382124948 15.405928763613595 
N 8.891703443014316 8.037758836817343 14.957847673042327 
N 11.22620827392885 7.83683442355268 14.829595343548679 
N 13.785134000379356 8.230146982493569 14.845637251450423 
N -5.086250049568539 10.287591146884209 15.079918428830487 
N -2.573519932704924 9.863032909296606 15.103564054076765 
N 0.008689344843877131 9.840581792243112 14.922247218657905 
N 2.689933937183844 10.109131728042295 14.826225470228668 
N 7.539776354415935 10.190776280398179 15.555673860485381 
N 10.233406191389005 10.215218524118585 14.95586890758323 
N 12.740593692754462 10.271395207062161 15.150001147279692 
N -6.542640280580501 12.185898000188754 14.851220965398566 
N -3.7789874942421666 12.425523148661314 15.056278680541263 
N -1.3354124233011508 12.475583382923446 14.906693481200444 
N 0.999472732439783 12.64717207105659 14.811710566399624 
N 3.7466079007987445 12.430931910428802 14.916303947118514 
N 6.030996259697345 12.128025434635108 15.245316291988905 
N 8.747101890413767 12.476079974418381 14.92143168741749 
N 11.262398376778707 12.308759280884566 14.98683544923069 
N -7.454383181854931 13.996056210811389 14.796053372965707 
N -5.025869903702818 14.588145272349971 15.08525177043322 
N -2.396484927005372 14.423641348767799 15.09379827654189 
N 0.059853409903946525 14.376084511680904 15.073280865628414 
N 2.644585018301359 14.637781765528555 15.00712658392114 
N 5.13269185219756 14.350943986018802 15.058172926640614 
N 7.807756582470508 14.836580898603172 14.76848273320694 
N 10.214590355882354 14.390496742445134 14.778419016514365 
N -9.03067277636897 16.74101176906839 14.905643104820752 
N -6.230453552614177 16.864753476300994 14.909785241167185 
N -3.36035701315629 16.64128542974099 15.195189479355298 
N -1.3837458992416178 16.714753785432347 14.974611864944379 
N 1.079415660835252 16.62497021975016 15.12803396685922 
N 3.610580302539564 16.574492924483994 15.113837449027756 
N 6.402286163973189 16.417204502259015 14.84643607003379 
N 8.678808423917772 16.913038743838804 14.853255606803796 
B 1.458943380353864 0.7173153917512877 15.04121682812229 
B 3.505782787243532 0.7653730894766522 15.058942604948067 
B 6.347323084979357 0.5456997643739575 14.711056859076798 
B 8.965670756557628 0.8397641622161683 15.273097640278404 
B 11.392578921380448 0.7224030301368363 14.688105147532617 
B 13.44428078551558 0.9034995399120481 14.748411194761866 
B 16.583758330935716 0.6191617909952878 15.291469330199803 
B 18.936634660448156 0.9254155747288871 15.221831452950582 
B 0.2083231866736429 2.579544044166878 14.710326230902963 
B 2.5670699384175903 3.236500418620596 14.93286980470004 
B 4.990412392965117 2.5902753325220456 14.81185353374673 
B 7.462151321835166 2.895965732436211 14.908296237427344 
B 10.052046984703754 2.9353963683268676 14.588145404666008 
B 12.523647368535622 2.890164119790912 14.921023257079609 
B 15.181690219755666 2.8283038948496406 14.813648792957741 
B 17.53248945823618 2.9765212383917037 15.375127625067625 
B -1.4370610790822305 4.8516923892963195 14.92078108431392 
B 0.9363206681753793 5.078930184492749 14.625708563468784 
B 3.5881517844113167 5.061966786726377 14.876417315710928 
B 6.361625266923428 5.032407230055518 14.891041373571618 
B 8.768565493651375 4.995641244306233 14.59830969293628 
B 11.119724210697479 5.099259741843647 14.987497259512429 
B 13.847316076771413 4.983179697824987 15.348626974717103 
B 16.58521210932355 5.091225250710692 14.901469698156188 
B -2.4083384348912054 7.263544824211007 14.792405710261802 
B 0.18787176650256798 7.057215530866579 14.949887667837775 
B 2.5650036012701545 7.316055257706988 14.839535322300442 
B 5.016401806769995 7.113163838434821 14.913357753539135 
B 7.6141526336047125 7.057701712505729 15.434392961864992 
B 10.127354065442505 7.051720200844444 15.198210390606713 
B 12.419126620124477 7.041902026014097 15.213207599775245 
B 15.076528158715305 7.255984859849817 15.181978471873375 
B -3.934701112139709 9.341923434665055 14.84510488771329 
B -1.1748983948501905 9.12788927211599 15.003637455004041 
B 1.3995939033416225 9.566743936414772 14.735605293471115 
B 3.6047504074690804 9.324036897192356 15.378976615682284 
B 8.963086558397883 9.528553774100859 15.394510178484953 
B 11.493400153678257 9.472072784726283 15.10822788565741 
B 13.921614825557437 9.66065238690457 14.551316081576966 
B -5.107059604370977 11.667186368470668 15.25916912655893 
B -2.442450367491103 11.639690431077325 14.766302088689866 
B -0.15516960259127752 11.798477482543495 15.034850262014235 
B 2.1984479169967703 11.615088560275842 15.233584518945452 
B 4.923102465823323 11.49728563508122 15.143171761493246 
B 7.397923519002497 11.723963892448232 15.165563552120362 
B 9.991499419299407 11.636515546707967 14.798460309706153 
B 12.235367559216098 11.562818521210177 14.83060639745109 
B -6.245850484330195 13.60504606147479 15.06636622485426 
B -3.7272961586609545 13.912358519035621 14.844035655207513 
B -1.107755574206948 14.032295579236004 15.030115371874771 
B 1.2701029524082952 13.870454110928524 14.800432342960708 
B 3.8882565143420926 13.747468607895158 14.984108578767554 
B 6.58388412802995 13.87219199244319 15.437598350941727 
B 8.861428443174216 13.872767838199339 15.288176589137127 
B 11.34842220341979 13.655361726078032 14.933566493610394 
B -7.580342610470321 16.284591650928416 15.393151034685372 
B -4.898813562000472 16.111091237127546 14.927227336388778 
B -2.3724261621846994 15.85066390951185 14.771793262923984 
B -0.17041948384655317 15.87236202372301 14.881756935293724 
B 2.409112874133453 15.959841547474069 15.161132066147633 
B 4.856172361499005 15.838063667499977 14.772655948140008 
B 7.745720993659808 16.002341633007926 15.495321321760505 
B 9.695577225322696 15.875727458599624 14.761113343969066 
