128
Lattice="20.0763846187 0.0 0.0 -10.0381923094 17.38665923 0.0 0.0 0.0 30.0" Properties=species:S:1:pos:R:3 pbc="T T T"
Ti 6.3162061994415035 9.418652574067172 16.369890837185224 
N 4.739486800695135 10.245624663407431 15.352352247401189 
N 0.2805773586899238 1.321454975677803 14.99514959479522 
N 2.269779079647351 1.6640661918876627 14.96040272466115 
N 4.961991533554465 1.224387446023448 15.023235091709116 
N 7.50337624482554 1.431396755516407 14.961487262252888 
N 10.237608435694012 1.4091916568542555 15.169718864401458 
N 12.4248557011226 1.4012169422183434 15.214303258933347 
N 14.807482106854833 1.5335064877970461 15.059965479149358 
N 17.53901377402895 1.6625836835104908 14.80415555785177 
N -1.3392873587240255 3.464167203975836 14.963033369442364 
N 1.2263295097383928 3.716689705924046 15.058372414694066 
N 3.838993776534271 3.6416943693484662 14.875622552948823 
N 6.262395282957737 3.4787132944130605 14.871592105887933 
N 8.824321525934941 3.7152456902052653 15.084481119424375 
N 11.341319938907995 3.7662641678605624 15.192164498358817 
N 13.853613147883273 3.460054903360995 15.010137164329215 
N 16.432072079054922 3.620607316430135 15.026363588138647 
N -2.5222447416354354 5.893956658999992 15.018624382710414 
N -0.134338369248984 5.710955071554801 15.003023184421751 
N 2.5114320031885025 5.882951840112643 15.033429375047369 
N 4.9067274263786 5.649723481860849 14.89572174161207 
N 7.647758369881602 5.75078719914518 14.854926630752772 
N 9.925145556745129 5.721975059790524 15.012299541468357 
N 12.538256103348665 5.678678190808264 14.755339277239054 
N 15.017280944366156 5.901092311286271 14.86324842775083 
N -3.799313680313526 7.936158995272864 15.03336222448748 
N -1.0941086979679862 7.742891844559604 14.975746536364944 
N 1.0977375601631447 8.132913879714494 15.019316667231562 
N 3.8628401992881654 7.9774388121627124 15.142248917948773 
N 6.280878858381075 7.761415918307322 15.431476999921953 
N 9.00615965138453 7.9077648865191765 15.000551155035788 
N 11.195778156410665 8.032910954292511 14.86554170861252 
N 13.938086788841098 8.092105815585164 14.885688026510923 
N -5.049265812748664 10.287765973606305 15.071715713632258 
N -2.5950411586884465 10.17123024647279 15.08788889901001 
N 0.02816646958870472 9.959323047168306 14.917049633737992 
N 2.5753388671329267 10.098010147744617 14.833711823540526 
N 7.491668550524909 10.158714597059536 15.490444618253326 
N 10.121338434363917 10.10234323889531 14.96002398030393 
N 12.70195761164733 10.271354813501516 15.064585333664898 
N -6.412555788385284 12.18594289522021 14.956437831833036 
N -3.759524158394947 12.360672272706404 15.026967393651136 
N -1.1889639891424588 12.595919529507581 14.979698211485472 
N 1.017703859606057 12.483164566313846 14.856992182550147 
N 3.92889483582249 12.301233489010366 14.974165507242994 
N 6.197031873765483 12.138246183283071 15.174435555759564 
N 8.837233252769048 12.383320937352511 14.88995248751187 
N 11.202928484668766 12.334868040002863 14.94694761614763 
N -7.51993802284278 14.261476620942835 14.834507736194835 
N -5.107858868647373 14.550423303511733 15.103443412715622 
N -2.392921273411026 14.502618259291422 15.052020443371388 
N 0.06184210400880838 14.380883757603142 15.007616148626514 
N 2.405704067375365 14.510382531570022 14.983415929263954 
N 5.166557074793404 14.437066034452299 15.019793056233333 
N 7.6151206307819805 14.652150603084731 14.782096278801774 
N 10.060953614202937 14.433133695335862 14.821104696251526 
N -8.906969855211406 16.891843957713156 14.950189554847938 
N -6.239426328714641 16.68229375470145 14.98449582608664 
N -3.681703795184961 16.64085912867258 15.110237646906835 
N -1.4030395312121184 16.706141846362478 15.010222026095262 
N 1.338001484578409 16.779608452787503 15.117134596693733 
N 3.602880023050109 16.557117394815258 15.08598826894677 
N 6.489311409855219 16.45302097232098 14.91698400094008 
N 8.66854804524394 16.724343945749105 14.870165234184363 
B 1.3787355409758069 0.6797356000904182 15.02971748478638 
B 3.6245010124769452 0.8517960429249408 15.050757488737263 
B 6.419987015333585 0.7096240458227641 14.7851546265047 
B 8.802152337233151 0.8221338499989621 15.161711354496388 
B 11.44831395324809 0.5310021805513043 14.830505524023534 
B 13.625074731826958 0.936464318071604 14.793259516262143 
B 16.495797982558255 0.7071810162279241 15.241793413769793 
B 18.83016809372331 0.7353275781286651 15.185283681889231 
B 0.10745374625958186 2.676146732266304 14.804418430500334 
B 2.6570525168727617 2.796851727180633 14.930432739051453 
B 4.894053622004414 2.8084199959278546 14.847348543812558 
B 7.4222524377409576 2.860577199000577 14.890350308594817 
B 9.97078983137765 2.913420165477506 14.671108836759183 
B 12.647728556566738 2.941370258109136 14.8908083783575 
B 15.060057951428858 2.9484209799609453 14.898236087618907 
B 17.6163004672118 3.176027661379493 15.196993599715729 
B -1.3145580620028965 4.9980480167715085 14.92681162111525 
B 0.9286520494463506 5.00495606339891 14.758954715189118 
B 3.7301484754217142 5.0436490791006605 14.87814953309313 
B 6.418440478813715 5.1509888030039 14.901623918221684 
B 8.93827188012397 5.090596845719147 14.715829952768843 
B 11.08677361917385 5.033064479443352 15.00525250818673 
B 13.783222685470173 5.110514104981471 15.288047544373642 
B 16.531802064211025 4.849970053759759 14.974614650965883 
B -2.3506730934059137 7.3723941744228485 14.85268388197544 
B 0.1442129625212544 7.341474453673462 14.945037491107081 
B 2.5690150316710425 7.163592406547247 14.877677302306214 
B 4.910664232504979 7.304959632823868 15.003414840505574 
B 7.425652322576923 7.1859133686270615 15.368736679236685 
B 9.856517063814566 7.195464563559338 15.14863648511254 
B 12.55062637059926 7.121103133184199 15.171174161813655 
B 14.864662818885035 7.329021150023435 15.117542528774393 
B -3.7848044809179138 9.250523435698877 14.881631572014827 
B -1.3178213464084514 9.322295177251826 14.961727144517937 
B 1.3835083499265255 9.284154775112421 14.84078784445069 
B 3.857203816430746 9.406974748269912 15.286976571361878 
B 8.92295125535918 9.542881182337382 15.308317229652465 
B 11.38069893195748 9.329598509843247 15.053788728115691 
B 13.798178526241731 9.494497188993451 14.682290347104145 
B -5.284773533882984 11.662134608094533 15.134678685723555 
B -2.3927695295257 11.350130199775384 14.870852674828477 
B -0.09821714524800278 11.870768929743717 14.996215491693714 
B 2.4008843877419697 11.581012017721246 15.144934429125062 
B 4.788889346581029 11.484104817641219 15.17667842489987 
B 7.437481142786734 11.757661119160055 15.164018343805175 
B 10.094275285789953 11.736211600387746 14.856254988860268 
B 12.605073358915856 11.608774326232377 14.899653598171607 
B -6.221292123487827 13.534097723650182 15.058872976265286 
B -3.748546779157532 13.896729440891937 14.868154784960408 
B -1.2873422999045987 13.674185976793376 14.986472046468185 
B 1.3828554785445764 13.908164565652001 14.874383650435453 
B 3.864078465652805 13.748186851395586 14.970373768054696 
B 6.2461789566013834 13.931153816857803 15.288627914670128 
B 8.98745802155131 13.832904768389977 15.182461813289613 
B 11.356131380212393 13.705308075167245 14.924894128244288 
B -7.521082332715984 16.07118941868061 15.265473566336436 
B -4.786991214960546 16.043127151212914 14.949580086225076 
B -2.4034908947463647 15.763888387304226 14.831116938087389 
B -0.06221123172052174 15.79635140209337 14.929986976611838 
B 2.3568576278679587 16.142368090499637 15.070329373684768 
B 4.89580971054289 15.742714259555 14.859159759392034 
B 7.554590143823065 16.170242033039898 15.328430822440286 
B 9.812872080678885 15.730724184349446 14.910159764641001 
