128
Lattice="20.0763846187 0.0 0.0 -10.0381923094 17.38665923 0.0 0.0 0.0 30.0" Properties=species:S:1:pos:R:3 pbc="T T T"
Ti 6.3564833539935925 9.44896205346602 16.406881299497858 
N 4.848745876196271 9.962399667556614 15.49446709999095 
N 0.12496594186208058 1.1669820888904825 15.168963958534864 
N 2.475455118912062 1.7913270730900615 14.908813016956145 
N 4.893436106969899 1.0482455219396043 14.974539841604967 
N 7.741791450402608 1.496222919794411 14.858308378201485 
N 10.309986801684873 1.5626309110764303 15.056843062953638 
N 12.28708813260803 1.6663696932265535 15.302367926856558 
N 14.285699712002462 1.7345848569529538 14.982806677605332 
N 17.688647437207102 1.744857585111005 14.855677528178179 
N -1.0749474717045355 3.3701681669216774 14.90469306532528 
N 1.1212715014330312 3.600402616531457 14.962846164723109 
N 3.8118230838514413 3.5835073206270835 14.822105651776697 
N 6.118822343594189 3.496191588875658 14.747745528797136 
N 8.731231521457325 3.5934069039765797 14.999063061830114 
N 11.253915762877266 3.6845055814567926 15.050531423190687 
N 13.827923450151939 3.579040384863415 15.044985610384417 
N 16.299444297024085 3.6212934535700514 15.096663581912706 
N -2.218376134741711 5.759217666705967 15.006040358236364 
N -0.5040182087263311 5.705347095461105 14.979173186429064 
N 2.264331008824941 5.765316456367115 14.897834929707354 
N 5.045785086704722 5.7163573221103245 14.811798589075195 
N 7.605497395818977 5.758756952053098 14.810372900137507 
N 9.970049110859584 5.718849057235402 15.114178114344776 
N 12.390177936896492 5.552742083515225 14.863056409622146 
N 14.93275313302637 5.773730294081731 14.921885396641555 
N -3.6406246542226857 7.8976127235392735 14.971405011137639 
N -1.078662633039936 7.722645177974953 14.90576420924479 
N 1.5536232866307969 7.936904094841016 14.949868883454622 
N 3.6679196646689607 7.824185849980803 15.241286801715464 
N 6.276915543019213 7.6756473293067655 15.417761796532819 
N 8.74125054715002 8.104566232009404 15.133928653815799 
N 11.364176065216547 7.691961079151881 14.948481227518323 
N 13.705576686464171 8.233633298118813 14.844144437142408 
N -5.0360978087212205 10.262633371400208 15.01330133055357 
N -2.511344361781243 9.570933570464137 15.01087484071173 
N 0.011498819265380664 9.924341779808843 14.925781254698283 
N 2.5184387330897198 10.301658469480605 14.857119630873603 
N 7.822187939924039 10.299402921105742 15.57781505892162 
N 10.266475933964918 10.340453058791251 15.018421248329345 
N 12.668421438085682 10.11474149912756 15.150847991345373 
N -6.4686345481088505 12.238151473894103 14.80560121273524 
N -3.820401627282389 12.446039729772787 15.046242554314464 
N -1.4318906030189777 12.4224136682102 14.819412127551898 
N 1.099471842701709 12.509342346562292 14.83502535315336 
N 3.4598423874862583 12.440226134133834 14.916912983664927 
N 6.184573328106684 12.33438171695826 15.36953148003711 
N 8.567076107261771 12.520001750898224 15.03223752281856 
N 11.10315259783758 12.223077193605919 15.026572138711863 
N -7.412284130500581 13.678132833969466 14.723212971065058 
N -4.88303427808971 14.631171218727955 15.00424428191231 
N -2.5272823582006314 14.501660061569229 15.02993577840964 
N 0.11702342803208245 14.613108917619762 15.126233820652473 
N 2.7944592133348136 14.572130078429334 14.976127097708588 
N 5.190338940138104 14.367530760131658 15.116040131173634 
N 7.9633760186271445 14.787842291758738 15.072737930169518 
N 10.123548017590043 14.521291980533492 14.83744723092556 
N -8.976578224724163 16.584230553817616 14.938211406411243 
N -6.2405502422507295 16.948288902394147 14.912707134762615 
N -3.2706379106180443 16.607142951067125 15.168267103883805 
N -1.2130288677539047 16.73962850735221 14.903606381938483 
N 0.8619143067574339 16.464110316005748 15.044140550671829 
N 3.7508120096652298 16.748369537238673 15.014795787023987 
N 6.360427041026947 16.441134557868548 14.967194755858564 
N 8.764811640337362 17.055284132720075 14.995377765667477 
B 1.416745268968184 0.6552981641893265 14.994389117820086 
B 3.5689790301833284 0.858228629086828 15.01037170878814 
B 6.310721387672456 0.5222714555472415 14.90435899953219 
B 9.098945927228193 0.7419639782178336 15.153310484669081 
B 11.269337678245277 0.7382858172876596 14.837949382572951 
B 13.450011298592878 0.683092143805998 15.019287221344808 
B 16.561786673952113 0.4958931908691082 15.04994666861131 
B 18.98808975871761 1.085499643898693 14.994802684510953 
B 0.1072371332368992 2.6399239021218457 14.833984597693268 
B 2.329911299342031 3.470020423507182 14.950809173317133 
B 4.999913290531815 2.5920667253270033 14.831682668107877 
B 7.533953264308876 2.924712389605499 14.957299802501904 
B 10.18101121241554 3.0729311787481444 14.986289523801256 
B 12.52069461597403 2.9410410144153705 15.173048145900404 
B 15.096877245340941 2.8138376165741183 14.868331270709675 
B 17.62050704000395 2.9025021119227308 15.336620851649641 
B -1.3794359020337568 4.7460970073444235 14.91081514182711 
B 1.0373552343812629 5.184836777451343 14.807083389322512 
B 3.6527746376138692 5.010531360473575 14.885925242616423 
B 6.16887106371921 4.858859792871244 14.827003277177353 
B 8.724879170046526 4.9885246571789805 14.783643595153633 
B 11.286347543095443 5.08404362022585 14.977472674869729 
B 13.864173983087861 4.783172211376401 14.970328928364502 
B 16.380825126347453 5.281848747133191 14.876726638647698 
B -2.3863775450332962 7.182363234172709 14.90001696023712 
B 0.15513921086922847 6.9130996615342575 14.988987782344195 
B 2.519385620957148 7.425272116635165 14.948338706685197 
B 5.064187163953048 7.0580523265103805 15.038613847893842 
B 7.838501024805637 7.133903845016848 15.214326316378738 
B 10.174002238705002 7.205714735484408 15.092387667821995 
B 12.383358659795189 7.007204426966363 14.92708230985458 
B 15.159118751510753 7.28795496973078 14.998118693540869 
B -3.9578674010745094 9.483841802100022 14.996909678385373 
B -1.1578963547527994 9.020370322092122 15.06083852288515 
B 1.2957840478905587 9.610598400326111 14.750551795832928 
B 3.4577236801377946 9.271742178844935 15.351591808488315 
B 8.882838751975719 9.408406020957216 15.295085824733093 
B 11.598632363883954 9.594696862138901 15.055156704015968 
B 13.854181757172757 9.616123218506011 14.78109273493345 
B -4.969693867654936 11.72303244287496 15.156190572840003 
B -2.676410265215062 11.924707118338416 14.851218602325574 
B -0.2251109382200287 11.593730421135726 14.969779320280061 
B 2.2008422029442265 11.786863722762357 15.02212167116954 
B 4.817135494543175 11.607709163861829 15.120114856233563 
B 7.428344775060259 11.578998857288456 15.21047182409572 
B 9.957358601353803 11.64506657449746 14.875393640674368 
B 12.322178594537244 11.544087244055504 14.826758634411831 
B -6.194155649216412 13.747873834702727 15.009491982957497 
B -3.72912604344397 13.782986530830883 15.014088716561705 
B -1.178059811404136 13.944019704634819 15.053510122604392 
B 1.4142543962398215 14.01887277241274 14.827326597825648 
B 3.8214580370591325 13.838923332399139 15.026125066352273 
B 6.510256696978294 13.707128380646445 15.235839709618139 
B 8.86386191136104 13.983187763402222 15.017281048214498 
B 11.35623380519907 13.644973612504565 14.924774853318517 
B -7.667271489126677 16.55280896467506 15.248310674539653 
B -5.004021516228815 15.980802335255502 15.056303508554178 
B -2.351788183120758 15.866190159214973 14.859619883606316 
B -0.22395503019434226 16.015534981824544 14.947823631513225 
B 2.439232948581964 15.817247558801135 15.21138640422697 
B 4.9809050085857765 15.959965914402439 14.92858065600454 
B 7.785974593810927 16.059187523311202 15.211064561438027 
B 9.993390854852167 16.017896485936426 14.603235355273526 
