128
Lattice="20.0763846187 0.0 0.0 -10.0381923094 17.38665923 0.0 0.0 0.0 30.0" Properties=species:S:1:pos:R:3 pbc="T T T"
Ti 6.329808783409215 9.425430197411947 16.380238151802352 
N 4.735310246582964 10.212414134106254 15.34385341446563 
N 0.35060854512958967 1.2423521562503455 15.017228059800374 
N 2.208762088117459 1.717221820605932 14.944362734988843 
N 4.929556210831769 1.157762606131337 15.043824126866337 
N 7.542799409202522 1.461184678545921 14.936001055965948 
N 10.32369598756205 1.394454659032909 15.2060596317182 
N 12.373093143690689 1.4365227123596156 15.313190004631412 
N 14.699454295944232 1.5771645711497984 15.076506843751915 
N 17.550735406836857 1.7827641942920716 14.740114116930174 
N -1.2352310857169864 3.4139577137517483 14.931458955653289 
N 1.2076119459453178 3.6973438814670745 15.089126891825615 
N 3.8290163570488707 3.6270608082935363 14.865880527749338 
N 6.195127232873493 3.444201784541596 14.843127322394567 
N 8.80926795773807 3.7284711236577106 15.15033764233078 
N 11.363118360516875 3.780958798798979 15.221480867335927 
N 13.88450496146391 3.4469394384751517 15.020718687194185 
N 16.403117942104743 3.573270747941951 15.028000938768132 
N -2.4704194251011025 5.898836574256764 15.03542254885 
N -0.2461537494983165 5.7184454739480906 15.029565976580358 
N 2.470981056713968 5.894944967076275 15.04870475085261 
N 4.919981676564649 5.672654828620269 14.887320642887746 
N 7.714249451837168 5.782225193854113 14.84749222659068 
N 9.922220946234498 5.754829742499084 15.050947810993309 
N 12.498643248162402 5.619292410941741 14.695326097271638 
N 14.97590825723855 5.909660812030157 14.808185553209016 
N -3.780340718194985 7.889660090957278 15.039187372857638 
N -1.0094368248865841 7.717393336228083 14.983670247088126 
N 1.1576179320256423 8.113014777414358 15.02816697880846 
N 3.832818779249356 7.994517812303385 15.194955270647053 
N 6.24322697232279 7.771169746145431 15.415453469409782 
N 8.980981241142024 7.963943211586786 14.952156437529712 
N 11.189011478373056 7.954650451104019 14.82129388518769 
N 13.875972610757367 8.178845597876391 14.859635664614556 
N -5.07167294536367 10.314074187396352 15.093244893365476 
N -2.599902854770691 10.02528578974918 15.112150089724997 
N 0.022782958231526165 9.884599768544875 14.921445172813625 
N 2.646011194568466 10.08757914939419 14.8200132101673 
N 7.470920033845164 10.157981078497901 15.52669330820595 
N 10.18052701407709 10.137134596038512 14.95037381946095 
N 12.740614109082982 10.29963763443025 15.118056334808553 
N -6.495511654079951 12.178299612331825 14.901315768523517 
N -3.7693677235515683 12.39453771022519 15.049161061903753 
N -1.2348207969744285 12.56618364932293 14.949413308325509 
N 0.9747205500655985 12.592657098205214 14.82773746715987 
N 3.871785759427402 12.361128816274478 14.942514224318797 
N 6.096148177707341 12.10349345109422 15.201121413842952 
N 8.807508759098539 12.42845860627725 14.892485690267463 
N 11.228227755497292 12.339309586473313 14.968014421335209 
N -7.493040165107534 14.133419016704641 14.811179712330366 
N -5.092625864599598 14.574268622139762 15.105513280340695 
N -2.3559388718898435 14.45514705031377 15.084954895453631 
N 0.07299114449139567 14.354352258978912 15.041940031157335 
N 2.5076365969217624 14.580270631638959 14.998832162159992 
N 5.154436735366775 14.393762193207548 15.036419568414441 
N 7.69452979227512 14.751602908568502 14.719540536997874 
N 10.151601749306158 14.399082635900236 14.784347722053939 
N -8.974164104896678 16.859755767815876 14.917735214796595 
N -6.231391576146211 16.759575327764285 14.93682143228808 
N -3.524179985382662 16.648957652716042 15.175397490227205 
N -1.419726867034607 16.719477629822777 14.99739579731905 
N 1.2431820869037036 16.72433815315098 15.1342371327332 
N 3.5704473205894818 16.53958883671248 15.118828488146168 
N 6.458320411913333 16.417008956101803 14.85762549755697 
N 8.65933074515364 16.806521559394763 14.836373523912355 
B 1.4269372211264448 0.712658026462111 15.037862759580053 
B 3.5260602414656597 0.8429144959746724 15.06235837632446 
B 6.402088173908533 0.6311634594147345 14.7124256446835 
B 8.871285173506234 0.8523597181519316 15.241939316692799 
B 11.452892923964834 0.6048732741037187 14.724005380467124 
B 13.512822437084534 0.9474786833217799 14.728718378079313 
B 16.553757054332685 0.6735184087508844 15.31398207549886 
B 18.866226032836167 0.8121410531977492 15.24601940409467 
B 0.18520066411664016 2.590120318059459 14.728807424926716 
B 2.6641366437021046 2.9867266778112342 14.927462503204275 
B 4.917614896050668 2.706478067529483 14.820371407529672 
B 7.422222522737628 2.8724053702049437 14.889852319842625 
B 9.995559361681256 2.9144463325055177 14.559097572858978 
B 12.597383743181725 2.9139328645080997 14.868022649983882 
B 15.124680512825195 2.9011598155872544 14.838207400935651 
B 17.557852985288168 3.1296048631989937 15.308762849472807 
B -1.3854055067916475 4.933950499580612 14.920857967479025 
B 0.8852597871557678 5.031960519939594 14.660528391947267 
B 3.6550620621750167 5.053290973115499 14.873443495739124 
B 6.415392355714178 5.117040214154575 14.903249763584311 
B 8.873929594959865 5.048410515660313 14.624638291282515 
B 11.051799541515795 5.05920521736794 15.000352238496443 
B 13.808224200794983 5.071446602731887 15.387627952467371 
B 16.59426597924292 4.932071522656484 14.936753645148196 
B -2.3556701808856553 7.334793708302922 14.800402543608184 
B 0.1814529660547974 7.234399202494664 14.942598572921957 
B 2.589570726550228 7.208507076382658 14.834937842999166 
B 4.951362639987681 7.237882465427347 14.93626953760685 
B 7.495914407519679 7.1186988175411035 15.44435222994958 
B 9.9644882147796 7.091376310157339 15.195816634911393 
B 12.507504191034338 7.0700448414082135 15.243789188371471 
B 14.945510325100502 7.2901552894797526 15.181359490836781 
B -3.849298925600356 9.262274415248589 14.836083585606355 
B -1.259458640456703 9.236821115364723 14.977314767166412 
B 1.4272530623418076 9.410948703304095 14.778391305770914 
B 3.766809758454908 9.365042655789837 15.353951633466076 
B 8.954469410418053 9.557081169112037 15.375597671326915 
B 11.43076059669106 9.379663056958437 15.094977069532305 
B 13.858172395003324 9.58674028603075 14.564778808542368 
B -5.235230022495343 11.665511804574347 15.217210899354306 
B -2.3912407220670877 11.457135637631517 14.793416268399579 
B -0.13723940038361793 11.887854966340573 15.021767866758989 
B 2.298077021222007 11.585437972842394 15.229128659375904 
B 4.841080541889004 11.44984046102605 15.161631090278409 
B 7.403840801015114 11.765087484524347 15.163937870143009 
B 10.040267969538297 11.706885339013796 14.813517990288096 
B 12.435932031332692 11.583699273737947 14.85724728537013 
B -6.222434479937522 13.52521194531405 15.071709620221476 
B -3.7352273470771986 13.9343348597366 14.825223133455395 
B -1.2225985092586782 13.85538280304444 15.00693904688565 
B 1.3198409265372497 13.891604875100512 14.828479437639155 
B 3.900549083236561 13.733680640756509 14.972884970587314 
B 6.442959901734039 13.922941917982763 15.405747907579876 
B 8.943596147000523 13.84107571144326 15.287173712411352 
B 11.355999530750262 13.671764602217609 14.933753071745935 
B -7.54314037674344 16.155136650553988 15.369273663653624 
B -4.810934104416531 16.085746737039923 14.9174188900717 
B -2.366673965458483 15.777768158288314 14.776542381239322 
B -0.11785005910868085 15.786000644262803 14.889980599593299 
B 2.3681328430950814 16.098891360451056 15.116715408692132 
B 4.856362889075767 15.75507671147911 14.788420517510886 
B 7.659787209923491 16.118404232181728 15.473671721919803 
B 9.692896538418644 15.7685230062078 14.847836117333213 
