 128
 energy=-550.89709531081337 cutoff=4.00000000 nneightol=1.20000000 pbc="T T T" Lattice="20.07638462       0.00000000       0.00000000     -10.03819231      17.38665923       0.00000000       0.00000000       0.00000000      30.00000000" Properties=species:S:1:pos:R:3:Z:I:1:map_shift:I:3:n_neighb:I:1:force:R:3
 Ti              6.32980878      9.42543020     16.38023815      22      -1      -1      -1      19     -0.48980413      0.59355406     -0.03636189
 N               4.73531025     10.21241413     15.34385341       7      -1      -1      -1      21      4.32462400     -5.30948578      3.56726429
 N               0.35060855      1.24235216     15.01722806       7       0       0      -1      21    -10.42345817      1.78445037      1.53727012
 N               2.20876209      1.71722182     14.94436273       7       0       0       0      22      7.24548241     -1.09899598      0.05517675
 N               4.92955621      1.15776261     15.04382413       7       0       0      -1      21     -0.17696090      3.45641255     -2.38565983
 N               7.54279941      1.46118468     14.93600106       7       0       0       0      24      1.80135914     -0.21087347     -0.41584334
 N              10.32369599      1.39445466     15.20605963       7      -1       0      -1      24     -3.23632772      1.71405601     -5.00590803
 N              12.37309314      1.43652271     15.31319000       7      -1       0      -1      22      1.40603626      4.37240993     -5.18732783
 N              14.69945430      1.57716457     15.07650684       7      -1       0      -1      22     -0.58267428      1.13181470     -2.22086204
 N              17.55073541      1.78276419     14.74011412       7      -1       0       0      23      1.74345069     -3.78748206      6.44882390
 N              -1.23523109      3.41395771     14.93145896       7       0       0       0      22      1.53600691      1.98149347      0.37176093
 N               1.20761195      3.69734388     15.08912689       7       0       0      -1      23      1.35611630     -3.94199260     -3.78133093
 N               3.82901636      3.62706081     14.86588053       7       0       0       0      23     -0.39681904     -1.10938341     -0.32490134
 N               6.19512723      3.44420178     14.84312732       7       0       0       0      23     -1.21816783      3.55101755     -0.54218476
 N               8.80926796      3.72847112     15.15033764       7      -1       0      -1      23     -0.93601140     -3.07247941     -5.97484434
 N              11.36311836      3.78095880     15.22148087       7      -1       0      -1      24     -0.73927276     -4.34159922     -4.40568555
 N              13.88450496      3.44693944     15.02071869       7      -1       0      -1      22     -2.52664783      6.03506926      0.23131452
 N              16.40311794      3.57327075     15.02800094       7      -1       0      -1      21     -4.88175444      2.45966716      0.50158362
 N              -2.47041943      5.89883657     15.03542255       7       0       0      -1      24      3.14389403     -2.74467754     -1.35165279
 N              -0.24615375      5.71844547     15.02956598       7       0       0      -1      21      0.64427266      2.17969529     -1.87875638
 N               2.47098106      5.89494497     15.04870475       7       0       0      -1      24     -1.17853458     -2.99465467     -2.86235680
 N               4.91998168      5.67265483     14.88732064       7       0       0       0      21      3.19387361      3.81282833     -0.63755003
 N               7.71424945      5.78222519     14.84749223       7      -1       0       0      24     -3.12960954      0.24392667      0.33782425
 N               9.92222095      5.75482974     15.05094781       7      -1       0      -1      22      1.22431322      0.05556103     -0.16630929
 N              12.49864325      5.61929241     14.69532610       7      -1       0       0      23     -1.75414790      1.68093981      6.44401704
 N              14.97590826      5.90966081     14.80818555       7      -1       0       0      23     -0.69585831     -2.62770752      4.98890636
 N              -3.78034072      7.88966009     15.03918737       7       0       0      -1      23      2.02253578      0.88075239     -1.26882640
 N              -1.00943682      7.71739334     14.98367025       7       0       0       0      22     -6.36714720      6.34850822     -1.50234114
 N               1.15761793      8.11301478     15.02816698       7       0       0      -1      24      9.13032730     -4.79641434     -1.29515781
 N               3.83281878      7.99451781     15.19495527       7       0       0      -1      23     -3.93137897     -3.60725590     -1.83663767
 N               6.24322697      7.77116975     15.41545347       7      -1       0      -1      23      0.39019868     -1.60744343      0.57288198
 N               8.98098124      7.96394321     14.95215644       7      -1       0       0      22     -5.58759494      1.25516656      5.05370310
 N              11.18901148      7.95465045     14.82129389       7      -1       0       0      24      4.06400927     -3.57790265      4.97659990
 N              13.87597261      8.17884560     14.85963566       7      -1       0       0      22     -2.29088482     -3.68145111      1.25047315
 N              -5.07167295     10.31407419     15.09324489       7       0      -1      -1      23      0.64546092     -5.08236178     -3.34674731
 N              -2.59990285     10.02528579     15.11215009       7       0      -1      -1      24      3.07524749     -0.81056227     -3.22661774
 N               0.02278296      9.88459977     14.92144517       7       0      -1       0      22     -0.83402939      2.68617985     -0.36428824
 N               2.64601119     10.08757915     14.82001321       7       0      -1       0      23     -2.15184308      2.84941480      1.93175805
 N               7.47092003     10.15798108     15.52669331       7      -1      -1      -1      23      8.62261933      3.15493551     -0.58706300
 N              10.18052701     10.13713460     14.95037382       7      -1      -1       0      22     -0.54409367      4.15596923      1.40261228
 N              12.74061411     10.29963763     15.11805633       7      -1      -1      -1      23     -3.47831482     -5.38263820     -1.97669245
 N              -6.49551165     12.17829961     14.90131577       7       0      -1       0      22      3.21287911      0.92060679      0.41690520
 N              -3.76936772     12.39453771     15.04916106       7       0      -1      -1      22      0.17530565     -0.21101280     -1.42417655
 N              -1.23482080     12.56618365     14.94941331       7       0      -1       0      22     -5.73065060     -5.36192673     -1.27771926
 N               0.97472055     12.59265710     14.82773747       7       0      -1       0      23      6.40385141     -5.03266371      1.15085842
 N               3.87178576     12.36112882     14.94251422       7      -1      -1       0      22     -6.03211799      0.73108858      0.53808087
 N               6.09614818     12.10349345     15.20112141       7      -1      -1      -1      22      3.15123058      5.25942867      1.62629766
 N               8.80750876     12.42845861     14.89248569       7      -1      -1       0      23     -2.86082734      0.16925960      2.44593632
 N              11.22822776     12.33930959     14.96801442       7      -1      -1       0      23      1.03416988     -3.70179373     -0.26696412
 N              -7.49304017     14.13341902     14.81117971       7       0      -1       0      21      1.18286193     -0.91007918      0.80018814
 N              -5.09262586     14.57426862     15.10551328       7       0      -1      -1      23      4.99268661     -0.90546890     -2.09754273
 N              -2.35593887     14.45514705     15.08495490       7       0      -1      -1      22     -7.85106290      1.84075146     -2.19134923
 N               0.07299114     14.35435226     15.04194003       7       0      -1      -1      24     -2.66817649      4.20633940     -0.25594008
 N               2.50763660     14.58027063     14.99883216       7      -1      -1       0      24      2.81483205     -1.28873515     -0.67988150
 N               5.15443674     14.39376219     15.03641957       7      -1      -1      -1      21     -0.43839061     -0.23172696      0.60418495
 N               7.69452979     14.75160291     14.71954054       7      -1      -1       0      21      3.58707354     -0.85162653     10.52711061
 N              10.15160175     14.39908264     14.78434772       7      -1      -1       0      23     -2.84613948      2.33963116      3.00296024
 N              -8.97416410     16.85975577     14.91773521       7       0      -1       0      22      0.59358380     -8.15255969      1.89767708
 N              -6.23139158     16.75957533     14.93682143       7       0      -1       0      22     -0.63265335      2.91563052      1.93000926
 N              -3.52417999     16.64895765     15.17539749       7       0      -1      -1      22      0.67094168     -1.77538851     -4.36027670
 N              -1.41972687     16.71947763     14.99739580       7       0      -1       0      24      4.79786936     -1.79414574     -0.94213679
 N               1.24318209     16.72433815     15.13423713       7      -1      -1      -1      23     -6.48486466     -3.79813890     -2.31467262
 N               3.57044732     16.53958884     15.11882849       7      -1      -1      -1      22      7.01573226      4.91665706     -3.50511380
 N               6.45832041     16.41700896     14.85762550       7      -1      -1       0      21     -1.73321867      3.20125422      4.70118842
 N               8.65933075     16.80652156     14.83637352       7      -1      -1       0      22      2.52409129      2.37232823      4.76028556
 B               1.42693722      0.71265803     15.03786276       5       0       0      -1      23     -0.95248993     -2.44812662     -0.27477901
 B               3.52606024      0.84291450     15.06235838       5       0       0      -1      21      6.21731955     -5.56092663     -1.05208718
 B               6.40208817      0.63116346     14.71242564       5       0       0       0      24     -2.56775936     -0.51561633      5.14249732
 B               8.87128517      0.85235972     15.24193932       5       0       0      -1      24      1.92103727     -3.07093492     -3.49554471
 B              11.45289292      0.60487327     14.72400538       5      -1       0       0      23     -4.83531463      2.80112019      5.19743175
 B              13.51282244      0.94747868     14.72871838       5      -1       0       0      21      3.15774667     -3.55627502      6.03239170
 B              16.55375705      0.67351841     15.31398208       5      -1       0      -1      22     -1.81447483     -1.63947545     -6.90179345
 B              18.86622603      0.81214105     15.24601940       5      -1       0      -1      23      2.62882962      2.56966855     -6.13563116
 B               0.18520066      2.59012032     14.72880742       5       0       0       0      23     -4.35009602      5.64114740      4.07086530
 B               2.66413664      2.98672668     14.92746250       5       0       0       0      24     -7.86727725      4.24455161      0.62782871
 B               4.91761490      2.70647807     14.82037141       5       0       0       0      21      3.74277400     -1.95581991      1.35749821
 B               7.42222252      2.87240537     14.88985232       5       0       0       0      23      2.87508931      0.83174688      1.38183339
 B               9.99555936      2.91444633     14.55909757       5      -1       0       0      23      2.22875413      1.34447023     10.12392027
 B              12.59738374      2.91393286     14.86802265       5      -1       0       0      23     -1.61288122      0.31789506      5.51488420
 B              15.12468051      2.90115982     14.83820740       5      -1       0       0      22     -0.52949567     -1.95856871      2.56546452
 B              17.55785299      3.12960486     15.30876285       5      -1       0      -1      22      3.23356640     -7.90773416     -3.26424307
 B              -1.38540551      4.93395050     14.92085797       5       0       0       0      23      1.35580206     -1.32362678      0.42310893
 B               0.88525979      5.03196052     14.66052839       5       0       0       0      23      6.80618417      1.18671394      4.47331848
 B               3.65506206      5.05329097     14.87344350       5       0       0       0      24      0.65708171      0.00556575      0.55749470
 B               6.41539236      5.11704021     14.90324976       5       0       0       0      23     -3.50957094     -3.59782090     -0.99521351
 B               8.87392959      5.04841052     14.62463829       5      -1       0       0      21     -2.83318850     -0.72233107      4.64577368
 B              11.05179954      5.05920522     15.00035224       5      -1       0      -1      23      7.61511186      0.97099598     -0.59191520
 B              13.80822420      5.07144660     15.38762795       5      -1       0      -1      22      1.06365878     -3.58433852    -10.05398659
 B              16.59426598      4.93207152     14.93675365       5      -1       0       0      24     -5.10273087      5.35926862      0.17124543
 B              -2.35567018      7.33479371     14.80040254       5       0       0       0      23     -3.53797573     -2.23587906      3.20020138
 B               0.18145297      7.23439920     14.94259857       5       0       0       0      21     -2.08919885     -5.27845404      0.69733916
 B               2.58957073      7.20850708     14.83493784       5       0       0       0      22     -3.29098912      4.67395886      3.41086073
 B               4.95136264      7.23788247     14.93626954       5       0       0       0      20      1.55932772     -4.44608189      3.14034700
 B               7.49591441      7.11869882     15.44435223       5      -1       0      -1      22      3.13056443      0.42577965     -6.15303763
 B               9.96448821      7.09137631     15.19581663       5      -1       0      -1      22      3.74645273      5.11536005     -3.31595643
 B              12.50750419      7.07004484     15.24378919       5      -1       0      -1      22     -3.44970773      1.63543265     -7.44276060
 B              14.94551033      7.29015529     15.18135949       5      -1       0      -1      24      3.28994309      0.71090895     -4.67787331
 B              -3.84929893      9.26227442     14.83608359       5       0      -1       0      21     -1.61854418      4.85551102      3.92844976
 B              -1.25945864      9.23682112     14.97731477       5       0      -1       0      22      2.01790610     -1.91634650      0.79688152
 B               1.42725306      9.41094870     14.77839131       5       0      -1       0      24     -5.62407535      1.74435592      1.40984451
 B               3.76680976      9.36504266     15.35395163       5       0      -1      -1      23     -5.52659302      0.20946504     -3.03940123
 B               8.95446941      9.55708117     15.37559767       5      -1      -1      -1      21     -1.31063382     -2.93098449     -3.50918062
 B              11.43076060      9.37966306     15.09497707       5      -1      -1      -1      22      0.94089532      2.96049594     -2.04804394
 B              13.85817240      9.58674029     14.56477881       5      -1      -1       0      22      0.38750465     -1.45811825      7.53712021
 B              -5.23523002     11.66551180     15.21721090       5       0      -1      -1      22      5.36043788      0.07383754     -2.87192120
 B              -2.39124072     11.45713564     14.79341627       5       0      -1       0      24     -3.75513430      4.93459632      3.79072203
 B              -0.13723940     11.88785497     15.02176787       5       0      -1      -1      22      1.73744607     -8.24180259     -0.77013829
 B               2.29807702     11.58543797     15.22912866       5       0      -1      -1      21      0.07270382      1.80369849     -5.69569399
 B               4.84108054     11.44984046     15.16163109       5      -1      -1      -1      22      2.27185963      6.63807398     -0.33204028
 B               7.40384080     11.76508748     15.16393787       5      -1      -1      -1      22      1.88970511     -3.42635029      0.06431380
 B              10.04026797     11.70688534     14.81351799       5      -1      -1       0      22      0.57454799     -3.00842801      1.95980615
 B              12.43593203     11.58369927     14.85724729       5      -1      -1       0      21     -2.85764924      0.57380070      1.20077069
 B              -6.22243448     13.52521195     15.07170962       5       0      -1      -1      22     -1.75316479      6.76448762     -1.27474352
 B              -3.73522735     13.93433486     14.82522313       5       0      -1       0      22     -0.41578905     -4.28819622      4.47345054
 B              -1.22259851     13.85538280     15.00693905       5       0      -1      -1      22      4.60730236     -0.91680568      0.23621072
 B               1.31984093     13.89160488     14.82847944       5       0      -1       0      24      1.85585186     -0.08025163      1.30422528
 B               3.90054908     13.73368064     14.97288497       5      -1      -1       0      22     -3.58128091      2.04720680      0.63394101
 B               6.44295990     13.92294192     15.40574791       5      -1      -1      -1      21     -5.04958485     -2.84247418     -6.15839692
 B               8.94359615     13.84107571     15.28717371       5      -1      -1      -1      22     -2.41305512      1.82297845     -7.54075934
 B              11.35599953     13.67176460     14.93375307       5      -1      -1       0      23     -0.51910190      1.31088696     -0.66033520
 B              -7.54314038     16.15513665     15.36927366       5       0      -1      -1      23     -1.08370690      3.49568151     -5.73124902
 B              -4.81093410     16.08574674     14.91741889       5       0      -1       0      23     -4.52367210     -0.32841599      3.04920497
 B              -2.36667397     15.77776816     14.77654238       5       0      -1       0      24     -3.27650669      4.45837067      3.64407892
 B              -0.11785006     15.78600064     14.88998060       5       0      -1       0      22      0.12927941      7.96838511      2.25128789
 B               2.36813284     16.09889136     15.11671541       5      -1      -1      -1      21      1.96321068     -7.17320072     -0.07559543
 B               4.85636289     15.75507671     14.78842052       5      -1      -1       0      21      2.44532417      4.91619568      3.92315504
 B               7.65978721     16.11840423     15.47367172       5      -1      -1      -1      23     -1.87451730     -4.49890507     -9.12913957
 B               9.69289654     15.76852301     14.84783612       5      -1      -1       0      22      9.14544227      5.04350688     -1.92228016
