 128
 energy=-555.20389276677588 cutoff=4.00000000 nneightol=1.20000000 pbc="T T T" Lattice="20.07638462       0.00000000       0.00000000     -10.03819231      17.38665923       0.00000000       0.00000000       0.00000000      30.00000000" Properties=species:S:1:pos:R:3:Z:I:1:map_shift:I:3:n_neighb:I:1:force:R:3
 Ti              6.33904224      9.43182754     16.38793417      22      -1      -1      -1      18     -0.82741928      0.07305958     -0.27109141
 N               4.76472475     10.15112087     15.36318629       7      -1      -1      -1      21      1.35233265     -2.19698683      2.75081657
 N               0.32996904      1.19546021     15.04446178       7       0       0      -1      21     -8.73682871      2.57689632      1.56417747
 N               2.21455680      1.74367520     14.93315377       7       0       0       0      22      8.45188298      0.34250477     -0.04797331
 N               4.90495515      1.13406189     15.04243739       7       0       0      -1      22      0.64348664      0.25855389     -2.13927062
 N               7.58725018      1.48400063     14.91425774       7       0       0       0      24      0.34841269     -1.53077971     -0.16695774
 N              10.36435341      1.39542405     15.19795303       7      -1       0      -1      24     -4.18637661      3.39230452     -4.22679799
 N              12.34581701      1.49513899     15.35093935       7      -1       0      -1      22      0.57689705      2.00658035     -5.18656083
 N              14.61721301      1.61755695     15.07372951       7      -1       0      -1      22     -2.48871719      0.28904362     -2.43447701
 N              17.57270645      1.84647598     14.73736608       7      -1       0       0      24      1.42246836     -6.02070181      5.28514252
 N              -1.13844818      3.39237613     14.90877843       7       0       0       0      22     -5.96889189      1.01417773      1.63616061
 N               1.20206621      3.65281977     15.08605183       7       0       0      -1      24      0.84034017     -0.28125864     -3.85648194
 N               3.81552520      3.60635979     14.85639809       7       0       0       0      22      2.20052375      0.58962699     -0.40576606
 N               6.13489988      3.44356809     14.81791084       7       0       0       0      23      2.67368065      2.77331745     -0.18136402
 N               8.79066264      3.71544933     15.15790679       7      -1       0      -1      23     -1.06124847     -2.49907970     -5.86668355
 N              11.37395215      3.76004512     15.21211701       7      -1       0      -1      23     -2.97065073     -2.36477464     -4.39298754
 N              13.89118990      3.48163656     15.03069098       7      -1       0      -1      22     -2.75522659      3.27258621     -0.17761287
 N              16.34389901      3.55044555     15.03310038       7      -1       0      -1      21      1.83636154      4.92741392      1.24748111
 N              -2.40803705      5.88218637     15.03845164       7       0       0      -1      23      1.42993709     -2.33316755     -1.17860327
 N              -0.32723338      5.74120253     15.03659765       7       0       0      -1      22      1.47219727     -1.33620532     -2.37502854
 N               2.43203828      5.88190716     15.03999719       7       0       0      -1      24     -1.54669192     -2.20699423     -3.50784891
 N               4.95513906      5.71824015     14.87672149       7       0       0       0      22      0.61902535     -0.94486188     -0.87712963
 N               7.74388062      5.80931785     14.84437360       7      -1       0       0      22     -5.89463195     -2.90241831     -0.39536511
 N               9.93306049      5.78496890     15.07993661       7      -1       0      -1      22     -0.86516019     -5.39269168     -1.40928213
 N              12.45643047      5.58738073     14.69548296       7      -1       0       0      23     -1.03962042      1.25754592      5.90938574
 N              14.93951278      5.89676627     14.80208018       7      -1       0       0      22      1.25380029     -2.67831836      4.64307874
 N              -3.75159475      7.85983933     15.03470273       7       0       0      -1      23      1.53936243      3.02363258     -1.53324829
 N              -0.98889053      7.74552655     14.97932490       7       0       0       0      21     -6.14130038      1.16149446     -1.81899762
 N               1.26836717      8.05995804     15.02678802       7       0       0      -1      23      4.96873731     -2.03700215     -2.56766916
 N               3.77879028      7.98469757     15.22216520       7       0       0      -1      22     -0.53912482     -5.16663938     -2.31691924
 N               6.21430141      7.76977949     15.40743933       7      -1       0      -1      23      3.53417401     -3.12213482      0.90867517
 N               8.91617222      8.02049112     14.95022912       7      -1       0       0      22     -1.27183943     -1.60000547      6.13243284
 N              11.21276246      7.86723331     14.82229637       7      -1       0       0      23      3.92499287     -0.16435209      4.91858742
 N              13.80601366      8.22161281     14.84779062       7      -1       0       0      21      2.69472965     -4.04642079      1.23232919
 N              -5.08489896     10.29745769     15.08602064       7       0      -1      -1      23      2.59682570     -2.40531615     -2.39659415
 N              -2.58188070      9.90168023     15.10924644       7       0      -1      -1      21      1.22361273      2.14883734     -3.33473672
 N               0.01161480      9.84722434     14.92234106       7       0      -1       0      21      0.95446697      4.62971244     -0.24178248
 N               2.68460372     10.09928439     14.82353899       7       0      -1       0      22     -6.49486130      4.72338850      0.82212871
 N               7.51521789     10.18037757     15.54942950       7      -1      -1      -1      23      6.24117677      1.76616462     -1.11188200
 N              10.22209090     10.19291535     14.95279892       7      -1      -1       0      22     -2.16567448      2.13516296      1.68848021
 N              12.74419385     10.28360543     15.14426111       7      -1      -1      -1      22     -3.45193077     -4.74060425     -2.20970169
 N              -6.53529549     12.18383761     14.86251441       7       0      -1       0      21      4.59350769      0.17348064      1.39058394
 N              -3.77655427     12.41867225     15.05582531       7       0      -1      -1      22     -0.13198139     -1.05700128     -1.21847512
 N              -1.30853838     12.49735036     14.91821393       7       0      -1       0      22     -0.18691647      2.35671246     -0.63236845
 N               0.98894017     12.64226438     14.81416590       7       0      -1       0      21      3.53595406     -9.17165591      1.62009209
 N               3.78082913     12.41631960     14.92158462       7      -1      -1       0      22     -2.06388188     -3.54271582      1.38893717
 N               6.03908116     12.11589594     15.23259978       7      -1      -1      -1      22      9.18725323      5.99468256      1.60079063
 N               8.76461749     12.46492238     14.91186903       7      -1      -1       0      22     -2.16542036     -0.93035433      2.17530138
 N              11.25893672     12.31965263     14.98229804       7      -1      -1       0      24     -6.49317348     -2.68847356     -0.08898876
 N              -7.46451833     14.03174244     14.80013632       7       0      -1       0      22      0.18007735     -1.39428059     -0.61032442
 N              -5.04581213     14.58455374     15.09228971       7       0      -1      -1      23      2.48738453      0.45610486     -1.82287252
 N              -2.37997747     14.42691998     15.09428330       7       0      -1      -1      21     -5.28514350      4.93285397     -2.70504360
 N               0.06328719     14.36440707     15.06555139       7       0      -1      -1      23      0.81648240      6.53389792     -0.07747981
 N               2.61141141     14.62803996     15.00634453       7      -1      -1      -1      22     -1.87037177     -5.22977348     -1.37837038
 N               5.13537930     14.35999784     15.05192907       7      -1      -1      -1      22      3.29632348      2.12951094      0.76795180
 N               7.77668763     14.81858879     14.74581583       7      -1      -1       0      21      1.84974955     -4.15490625      9.68993404
 N              10.20593392     14.38863797     14.77658064       7      -1      -1       0      23     -7.69382714      4.25370732      3.16192525
 N              -9.01845506     16.77444134     14.90655551       7       0      -1       0      23      2.65882526     -2.02505696      2.05573464
 N              -6.23025378     16.83829980     14.91451752       7       0      -1       0      22     -0.37905018     -0.74358541      1.93500965
 N              -3.39768779     16.64544825     15.19430695       7       0      -1      -1      22     -4.63316291     -2.04672622     -3.66944976
 N              -1.39748572     16.71669865     14.98125211       7       0      -1       0      23      4.46404076     -0.38546418     -0.88902943
 N               1.12235413     16.65149603     15.13278319       7      -1      -1      -1      22     -0.70678675     -1.10621642     -3.15511499
 N               3.59482537     16.56085620     15.11868206       7      -1      -1      -1      22      4.90145809      4.63270009     -3.43924052
 N               6.41518792     16.41527732     14.84368247       7      -1      -1       0      21      1.61539470      1.47048711      5.38916174
 N               8.67307342     16.88494079     14.84396142       7      -1      -1       0      22      0.53893928      0.93428097      4.83180406
 B               1.45345445      0.72137058     15.04139681       5       0       0      -1      23     -2.12708566     -3.97241863     -0.92275618
 B               3.50405736      0.78601048     15.06131681       5       0       0      -1      21      4.54496059      0.68997097     -1.13918430
 B               6.36067794      0.56409492     14.70413099       5       0       0       0      23      0.90938882      2.88184762      5.42791690
 B               8.94150738      0.84670114     15.27084283       5       0       0      -1      24      0.00222123     -2.71970009     -4.27974043
 B              11.41185984      0.69640220     14.68883876       5      -1       0       0      23     -2.51395278     -3.77762766      6.23232648
 B              13.45581251      0.91947342     14.73509845       5      -1       0       0      21      4.52172342     -3.96750812      6.27007116
 B              16.58071489      0.63344946     15.30522646       5      -1       0      -1      22     -3.54996213     -0.31014072     -5.78936169
 B              18.91626343      0.89425594     15.23569006       5      -1       0      -1      23      1.69471992      1.98340921     -5.65111430
 B               0.20823718      2.57617422     14.70918803       5       0       0       0      24     -4.11645271      4.01508709      4.31740110
 B               2.60138246      3.17644082     14.93055726       5       0       0       0      23     -6.86573931     -3.45367021      0.69485997
 B               4.97210202      2.61581362     14.81238691       5       0       0       0      21     -1.00692415      4.10368203      1.11590183
 B               7.45048515      2.88948021     14.90221870       5       0       0       0      23      0.80575881      0.32014707      0.98260246
 B              10.03566417      2.92635004     14.56758625       5      -1       0       0      24      1.37449710      3.32535096      9.77723196
 B              12.54028525      2.89353393     14.90067802       5      -1       0       0      22      2.10762502      2.29328591      5.11439625
 B              15.17191808      2.84619294     14.81634484       5      -1       0       0      23     -4.05544988      0.92227983      2.54060072
 B              17.53167328      3.01683296     15.36480231       5      -1       0      -1      22      5.12557003      0.31034831     -4.85108784
 B              -1.42889072      4.87464060     14.92060388       5       0       0       0      23      4.07264815     -1.85030525      0.06926287
 B               0.91986005      5.06659901     14.62634490       5       0       0       0      23      2.01285641      0.49840187      6.31292200
 B               3.60111629      5.06052304     14.87503991       5       0       0       0      24      3.53578655     -0.88925458      0.42636370
 B               6.37865025      5.05658102     14.89548366       5       0       0       0      23     -2.50798016     -1.86374161     -1.03847359
 B               8.79299611      5.00715123     14.59710659       5      -1       0       0      22      2.48135288      1.74831406      6.03931736
 B              11.09446360      5.08991937     14.99125456       5      -1       0       0      22      5.53133429     -0.90269100     -0.31746940
 B              13.83739192      5.01036526     15.37138430       5      -1       0      -1      22     -0.23873343     -3.64821658     -9.44381659
 B              16.59494428      5.05126198     14.90962410       5      -1       0       0      23     -5.63628677     -1.16811750      0.59619755
 B              -2.39463364      7.28127709     14.78985627       5       0       0       0      23      0.58015429      0.62588382      3.39337607
 B               0.18755280      7.10175393     14.94687332       5       0       0       0      21     -0.89600808      1.42068940      0.91995553
 B               2.57642440      7.28507272     14.83347878       5       0       0       0      22     -3.92309789      2.39266324      3.64095420
 B               5.00070259      7.14384129     14.91363835       5       0       0       0      21     -0.79293971      1.87176872      4.27699697
 B               7.58216724      7.06842211     15.44495101       5      -1       0      -1      21      1.53855025      4.16424315     -5.89841604
 B              10.08947601      7.05002430     15.20235339       5      -1       0      -1      21     -3.65042767      9.06582192     -3.49090851
 B              12.44363098      7.04682467     15.23063415       5      -1       0      -1      22     -1.09809682      1.53577156     -7.14336673
 B              15.04531683      7.26104435     15.18874350       5      -1       0      -1      23     -2.23348243      2.89616682     -5.16926610
 B              -3.91323554      9.31850569     14.83735132       5       0      -1       0      21      0.49141058      1.96582735      4.08436712
 B              -1.19487158      9.15650812     14.99638632       5       0      -1       0      22     -1.68796574     -0.52144791      0.40572067
 B               1.41234206      9.53308020     14.74331520       5       0      -1       0      24     -3.75240280     -5.27052049      2.40069381
 B               3.64467966      9.33268754     15.37576906       5       0      -1      -1      22      2.34075114      1.34725220     -2.02345629
 B               8.96420635      9.53989536     15.39479845       5      -1      -1      -1      21     -3.12490657     -3.36522033     -3.69621469
 B              11.47570774      9.44813822     15.10794264       5      -1      -1      -1      22      1.60501131      0.03706401     -2.26533354
 B              13.90872108      9.64666437     14.54459423       5      -1      -1       0      22     -3.00640804     -3.76306927      7.41054217
 B              -5.14002656     11.66455091     15.25414168       5       0      -1      -1      22     -0.46317258      1.93877593     -4.36175816
 B              -2.42499478     11.59322400     14.76738353       5       0      -1       0      24     -3.47740888     -0.43757218      4.22417622
 B              -0.15092005     11.82399846     15.03363114       5       0      -1      -1      21     -0.36452102     -1.00146047     -1.76061825
 B               2.22070307     11.60408124     15.24024606       5       0      -1      -1      22      2.57585911      2.89648862     -5.79886939
 B               4.90831822     11.48028056     15.14823155       5      -1      -1      -1      22     -5.90577459      2.73877922     -0.27580523
 B               7.39842001     11.73827820     15.16456124       5      -1      -1      -1      22      0.50209148     -2.88091652      0.57881869
 B              10.00041380     11.65410249     14.79892699       5      -1      -1       0      22      2.76711369      0.90619396      2.57638883
 B              12.27663264     11.56686902     14.83566775       5      -1      -1       0      21      9.51552549      0.89722622      1.09156291
 B              -6.23942021     13.58067602     15.06944269       5       0      -1      -1      22      0.08607607      2.12707229     -1.29980571
 B              -3.72889317     13.92340556     14.83366893       5       0      -1       0      21     -0.25289917     -4.02270499      4.09431923
 B              -1.13534293     13.99934560     15.02454556       5       0      -1      -1      22     -2.76022489     -9.97771690     -0.27769044
 B               1.27386702     13.86986875     14.80518601       5       0      -1       0      24      7.25461961      5.37117500      1.76449865
 B               3.89608362     13.74018370     14.98048401       5      -1      -1       0      22     -3.41158126      2.98187026      0.60016466
 B               6.56139496     13.88746487     15.43873141       5      -1      -1      -1      21    -10.34469737     -1.82746123     -6.88411380
 B               8.88044765     13.86093701     15.29905446       5      -1      -1      -1      22      1.97824727      3.08382921     -8.33561885
 B              11.34902599     13.65786640     14.93415811       5      -1      -1       0      23      1.28886630      1.06558069     -0.33133934
 B              -7.56967113     16.24770174     15.39431019       5       0      -1      -1      23     -1.00586779      3.14747287     -5.17081309
 B              -4.87640869     16.10840081     14.92025504       5       0      -1       0      23      0.77299796     -3.66259477      3.38471112
 B              -2.36832695     15.83158914     14.76822384       5       0      -1       0      23     -1.43022858     -0.50636886      3.42525293
 B              -0.15892346     15.84708372     14.88039108       5       0      -1       0      23      1.43615567      1.29817508      2.58015047
 B               2.40061608     15.99836084     15.15055492       5      -1      -1      -1      22     -1.99609860     -1.36426224     -0.50549684
 B               4.85232594     15.81485069     14.77036328       5      -1      -1       0      22      3.01312149      0.97055399      4.80898081
 B               7.72867705     16.03075449     15.50377101       5      -1      -1      -1      23     -3.46549680      1.90674495    -10.34405158
 B               9.67888424     15.84815719     14.78511924       5      -1      -1       0      22     12.28637501     -0.40400611     -1.54358759
