 128
 energy=-560.40647774671265 cutoff=4.00000000 nneightol=1.20000000 pbc="T T T" Lattice="20.07638462       0.00000000       0.00000000     -10.03819231      17.38665923       0.00000000       0.00000000       0.00000000      30.00000000" Properties=species:S:1:pos:R:3:Z:I:1:map_shift:I:3:n_neighb:I:1:force:R:3
 Ti              6.35257549      9.44424096     16.40148322      22      -1      -1      -1      20     -1.07155817     -0.65392964     -0.53120408
 N               4.83346555     10.00990712     15.44534899       7      -1      -1      -1      22     -2.54605065      3.15947116      0.49543118
 N               0.17431128      1.15445635     15.12362695       7       0       0      -1      23      5.97673290      3.65475243      0.40728648
 N               2.36629781      1.78934412     14.91275758       7       0       0       0      22      2.35543207     -2.94424867      0.87092280
 N               4.87793990      1.08160030     15.00403516       7       0       0      -1      22      3.71199487     -0.55484312     -0.89612178
 N               7.68565954      1.50223345     14.87182267       7       0       0       0      24      0.95165210     -1.60121873      1.03354213
 N              10.36075595      1.47244044     15.11433182       7      -1       0      -1      24     -5.49022458      6.01680605     -1.18396559
 N              12.30240418      1.62888251     15.33786014       7      -1       0      -1      23      0.80224815     -4.18942039     -2.64043365
 N              14.41044875      1.69822888     15.02505644       7      -1       0      -1      22     -2.23550190     -0.43972850     -1.80763373
 N              17.64314073      1.84208311     14.80997823       7      -1       0       0      24      1.09083494    -11.12469108      0.13531506
 N              -1.05768432      3.37016306     14.89452909       7       0       0       0      22     -5.77084891      1.26800105      1.85980141
 N               1.18080816      3.58454396     15.01615136       7       0       0      -1      24     -6.85206331      6.32566595     -1.53785015
 N               3.81650188      3.57969953     14.83223404       7       0       0       0      23     -1.37850618      2.14414202      0.37284819
 N               6.08393763      3.48273151     14.76747291       7       0       0       0      23      7.00921394     -1.49227368      0.73143042
 N               8.74192612      3.64329138     15.07283544       7      -1       0      -1      23      2.18900064     -1.19171229     -2.74706666
 N              11.32296859      3.69423074     15.11836624       7      -1       0      -1      23     -4.64049295      3.48604144     -1.65244156
 N              13.85963405      3.57825116     15.04445712       7      -1       0      -1      22     -1.64695057     -7.11739564     -0.81430565
 N              16.28026693      3.58441035     15.06797677       7      -1       0      -1      22      5.63009112      1.40269614      1.07204802
 N              -2.26889843      5.80921678     15.02324161       7       0       0      -1      22     -2.82499325     -1.32096783     -1.03935342
 N              -0.46169380      5.74369588     15.00876816       7       0       0      -1      23      3.07423190     -4.60163275     -1.48754158
 N               2.32446120      5.81680397     14.95995585       7       0       0       0      24     -0.38891265     -2.21629078     -2.00348015
 N               5.02830922      5.75970662     14.83884917       7       0       0       0      23     -2.56925548     -7.78135636     -0.87726016
 N               7.68939880      5.80081322     14.82711157       7      -1       0       0      22     -5.96139303     -3.94772439     -0.84934950
 N               9.94966939      5.75536340     15.11195547       7      -1       0      -1      22      1.92519605     -1.08827517     -1.45511512
 N              12.37796075      5.55086709     14.79212960       7      -1       0       0      23      7.28444776      2.45072352      1.61213039
 N              14.90565696      5.82362210     14.86787116       7      -1       0       0      22      5.47524790     -1.03279203      1.69675431
 N              -3.67263856      7.86178668     14.99880210       7       0       0       0      22     -1.51278353      3.66910993     -0.85806876
 N              -1.04026240      7.77896574     14.93840650       7       0       0       0      21     -0.48199590     -9.53908200     -1.19196274
 N               1.51967333      7.94562870     14.98260109       7       0       0       0      23    -13.29381574      6.87918969     -0.66711412
 N               3.67908246      7.88545319     15.23960840       7       0       0      -1      20      5.02401616     -0.26499093     -0.35376246
 N               6.22824864      7.71612196     15.40849211       7      -1       0      -1      22      4.45396016     -1.06145485      0.93217876
 N               8.77802589      8.09843083     15.05158084       7      -1       0      -1      24      4.45590538     -4.00798318      2.57359951
 N              11.31811997      7.71386257     14.89870627       7      -1       0       0      23     -2.07214428      7.27661695      0.38970414
 N              13.71796817      8.24248614     14.84293678       7      -1       0       0      21      3.27227124     -1.62827811      0.25098797
 N              -5.06308928     10.24965751     15.03846440       7       0      -1      -1      24      1.27246338      5.23021357      0.21794426
 N              -2.53141469      9.68261434     15.05063817       7       0      -1      -1      21     -0.75545578     -0.85259727     -0.63000690
 N               0.00857814      9.86380349     14.92220571       7       0      -1       0      22      0.08894265      5.71541323      0.54269065
 N               2.62591325     10.21214946     14.84260668       7       0      -1       0      23     -8.28449274      2.83382940      0.69120932
 N               7.70712945     10.25749692     15.57401689       7      -1      -1      -1      20      1.14043729     -0.10447181     -0.80540546
 N              10.26409563     10.31776190     14.98842373       7      -1      -1       0      22     -1.78582190     -5.78692839      1.19334605
 N              12.69664564     10.17830474     15.15768028       7      -1      -1      -1      22      0.35258336     -0.57401947     -1.23501111
 N              -6.52463126     12.20785001     14.81276627       7       0      -1       0      21      5.45890308      2.32911857      1.94615628
 N              -3.79745351     12.44447392     15.05018934       7       0      -1      -1      22     -1.58855956     -1.11644703      0.15138820
 N              -1.42708725     12.41466540     14.84925159       7       0      -1       0      21      6.53396080      5.52807412      0.67062572
 N               1.06665060     12.58376305     14.81865248       7       0      -1       0      21     -1.29533587     -3.40632957      1.36012503
 N               3.56750386     12.45639008     14.90737093       7      -1      -1       0      21     -0.14952392     -3.62893666      1.85779020
 N               6.09404027     12.24497454     15.32209523       7      -1      -1      -1      21      5.40945681      1.64530817     -0.13340479
 N               8.64041085     12.51452244     14.98685728       7      -1      -1       0      21     -1.18948024     -2.21484096      0.54786649
 N              11.19017390     12.24998323     15.01133660       7      -1      -1      -1      22     -4.38890188      1.25917305      0.00899880
 N              -7.41526348     13.80324031     14.76035773       7       0      -1       0      25     -2.88429730     -0.98015477     -2.01455341
 N              -4.92592445     14.61831501     15.03685171       7       0      -1      -1      22     -2.53198855     -1.12887610     -0.22209637
 N              -2.48872343     14.45732918     15.06412545       7       0      -1      -1      21      2.63190773      2.52713431     -1.82544902
 N               0.07978930     14.50361014     15.10968010       7       0      -1      -1      23      2.80489069      3.39831440     -0.76773502
 N               2.76979903     14.62130992     14.99485973       7      -1      -1       0      22     -6.72128027     -4.32653769     -1.34446982
 N               5.15755285     14.34008855     15.09446306       7      -1      -1      -1      22      1.89654964      4.18941130     -0.14204216
 N               7.93985080     14.84787424     14.94631544       7      -1      -1       0      22     -7.69654442     -8.27349449      1.28794805
 N              10.17965168     14.44807057     14.81165557       7      -1      -1       0      23     -3.44070956      4.67016530      0.32301945
 N              -9.03350285     16.60501157     14.91944561       7       0      -1       0      23      7.46843199      8.34825110      1.18090132
 N              -6.23486962     16.95277809     14.90333708       7       0      -1       0      22     -0.32948110     -7.78604491      1.57755228
 N              -3.25415213     16.61476423     15.17891947       7       0      -1      -1      23    -10.25610084      1.49874205      0.38408216
 N              -1.27932930     16.71663155     14.93371440       7       0      -1       0      23     -0.29323297      3.08098991     -0.64148496
 N               0.89895305     16.50252056     15.08035981       7      -1      -1      -1      23      9.90942457      5.14971231     -0.54933867
 N               3.70612547     16.68100918     15.05982467       7      -1      -1      -1      22     -2.32960572     -0.27813825     -1.19187321
 N               6.36250238     16.43222944     14.90693962       7      -1      -1       0      22      2.73760860     -0.14558152      2.51444571
 N               8.71774948     17.03222681     14.93648053       7      -1      -1       0      21      3.40445515     -6.82904063      0.46677020
 B               1.44972330      0.67024060     15.02180722       5       0       0      -1      22     -2.53847305      2.06996267     -1.50677531
 B               3.54452773      0.75282824     15.03409338       5       0       0      -1      22     -0.53483151     11.74470232     -0.79021455
 B               6.30755490      0.50563615     14.80954154       5       0       0       0      22      2.68099312      3.76437380      3.00423864
 B               9.06745060      0.78001115     15.22544757       5       0       0      -1      24     -3.10327805      0.09702966     -4.00487783
 B              11.29906311      0.77287111     14.75537084       5      -1       0       0      24      3.14607796     -6.08337942      3.59272856
 B              13.43904548      0.77037603     14.89051566       5      -1       0       0      23      0.40456852      0.15874556      3.68508189
 B              16.56458625      0.54518804     15.16082883       5      -1       0      -1      21      1.84383964     -0.72891309     -2.69223064
 B              19.01681231      1.05556621     15.09677505       5      -1       0      -1      22     -8.96244118     -4.97650284     -2.14126969
 B               0.16330919      2.61990677     14.76780866       5       0       0       0      24     -2.54461249     -0.91394855      2.72956768
 B               2.37813926      3.44138202     14.94727218       5       0       0       0      25      7.85946440     -8.90311775     -0.66104694
 B               5.03102050      2.55316503     14.82024790       5       0       0       0      24     -5.53569928      5.49709128      0.55401199
 B               7.51492252      2.92356015     14.94322385       5       0       0       0      23     -1.35674191     -1.71604443     -0.88649844
 B              10.14018565      3.02272274     14.80246672       5      -1       0       0      24     -1.09022179     -1.27188340      4.39254360
 B              12.49209511      2.90899603     15.07059351       5      -1       0      -1      22      4.60603168      1.80576763      0.61071853
 B              15.15942252      2.78277773     14.83205832       5      -1       0       0      23     -4.34512925      6.15222258      2.35727628
 B              17.57830807      2.85951258     15.37186555       5      -1       0      -1      22      1.00344358     11.82870640     -2.78529956
 B              -1.41959637      4.75863770     14.91766690       5       0       0       0      23      2.65483055      4.45167749     -0.48268979
 B               1.01658337      5.14588151     14.70657955       5       0       0       0      22     -3.06860256     -0.12401665      4.52193049
 B               3.59740218      5.03962147     14.88468304       5       0       0       0      23      4.41170334     -1.21070800     -0.44620744
 B               6.24776224      4.90849886     14.85615316       5       0       0       0      21     -0.80636580      2.94568461     -0.72699863
 B               8.70734181      4.97384958     14.68255981       5      -1       0       0      23      5.25817378      2.61506587      4.46274089
 B              11.25987920      5.11560067     14.97340869       5      -1       0       0      23     -7.17405436     -4.38218323      1.42957112
 B              13.87597008      4.83052730     15.13805792       5      -1       0      -1      23     -3.01134453      5.63421574     -2.99531511
 B              16.47251253      5.24137474     14.87458800       5      -1       0       0      20     -1.65740746     -4.86169113      1.88438574
 B              -2.42962273      7.19905291     14.84487972       5       0       0       0      23      5.80052260      2.06819830      2.04655779
 B               0.17154654      6.91557838     14.97405400       5       0       0       0      23     -0.41787822      8.06279156     -0.11102505
 B               2.49794483      7.44343634     14.90336423       5       0       0       0      21      8.33344647    -11.01937798      0.08239379
 B               5.06764960      7.03288547     14.96816758       5       0       0       0      22     -3.58972138      7.34086216      3.36604112
 B               7.77548622      7.07859661     15.31714647       5      -1       0      -1      20     -3.84153176      3.67620395     -2.60203124
 B              10.21859776      7.14198006     15.14164629       5      -1       0      -1      21     -9.89873744     -0.45327919     -1.11106846
 B              12.33807783      7.02622904     15.05343313       5      -1       0      -1      22     10.48074043     -1.47103346     -2.16967291
 B              15.16825678      7.26367471     15.08865632       5      -1       0      -1      24     -6.26292803      1.65697709     -2.95871871
 B              -3.99468510      9.45366621     14.92795593       5       0      -1       0      23      7.74471657     -4.24485952      1.42794405
 B              -1.12719878      9.02011504     15.04123105       5       0      -1      -1      23     -6.45594359      7.28874876     -0.30982056
 B               1.32364856      9.64033715     14.73017185       5       0      -1       0      22      2.27580838     -6.77475646      2.12166624
 B               3.47811689      9.29044557     15.37419130       5       0      -1      -1      21      5.01574762     -0.09733336     -1.96256164
 B               8.91391599      9.44119955     15.34924601       5      -1      -1      -1      20      0.67629170      2.93112923     -2.34607552
 B              11.58469921      9.57158188     15.08416495       5      -1      -1      -1      23     -4.88720548     -3.85688366     -1.22367945
 B              13.91544747      9.66961354     14.66716495       5      -1      -1       0      23     -5.56170467     -5.90510353      3.67388465
 B              -4.98287991     11.70174791     15.22236249       5       0      -1      -1      22     -6.31268026     -0.36300276     -3.97707044
 B              -2.57798998     11.83812032     14.80599283       5       0      -1       0      23     -1.20100426     -3.00912963      1.68806358
 B              -0.19442415     11.67009852     15.01046685       5       0      -1      -1      22     -0.51564232      0.03510797     -2.48073106
 B               2.15160967     11.71178661     15.12861291       5       0      -1      -1      22      8.11513805      1.24700273     -3.77483557
 B               4.89270105     11.57379014     15.12101173       5      -1      -1      -1      21     -4.47542391     -1.05798097      1.40395611
 B               7.40476825     11.62776220     15.18470915       5      -1      -1      -1      21      2.18948672      1.46113931      1.41709108
 B               9.97504500     11.60169374     14.83111613       5      -1      -1       0      24     -1.44148639      6.64692340      2.22585259
 B              12.21391968     11.54582256     14.81795574       5      -1      -1       0      21     10.57201346      0.94004517      1.71526474
 B              -6.24382957     13.70784135     15.03609522       5       0      -1      -1      23      5.12456883     -1.91141523     -0.67294385
 B              -3.72440831     13.82379899     14.93849961       5       0      -1       0      22     -0.67747159      2.07832409      1.42810808
 B              -1.09093651     14.04133790     15.05018074       5       0      -1      -1      21     -8.96294939     -9.11311668     -0.86375767
 B               1.33840411     13.94708534     14.80280954       5       0      -1       0      24      2.47374853      1.55106256      2.22232550
 B               3.82963862     13.81010132     15.00872812       5      -1      -1      -1      20      3.59901102     -1.54201346      0.17718835
 B               6.56931865     13.77119274     15.34456916       5      -1      -1      -1      22     -3.33681069      0.04649049     -4.61569735
 B               8.82296879     13.95608451     15.14352402       5      -1      -1      -1      22      6.63414854     -3.31385074     -2.86274513
 B              11.35934224     13.64874015     14.92852980       5      -1      -1       0      24     -1.44677765     -0.05736248     -0.05536889
 B              -7.64316684     16.47793160     15.32681360       5       0      -1      -1      24      1.70986407     -5.04360542     -3.43777217
 B              -4.97937119     16.05266111     14.99860027       5       0      -1       0      23      2.01088861     -3.15057155      1.06552525
 B              -2.38114942     15.89331847     14.82040516       5       0      -1       0      23      3.92916654     -5.31657339      0.58058052
 B              -0.20816735     15.98779116     14.91563831       5       0      -1       0      23      0.22589426     -4.58931719      0.84358797
 B               2.43170170     15.82195398     15.20225263       5      -1      -1      -1      22     -0.28794549      8.03519366     -1.56694539
 B               4.91644653     15.93492298     14.84604012       5      -1      -1       0      23      2.57545093     -3.43485578      3.34558466
 B               7.78900222     15.96051787     15.34802905       5      -1      -1      -1      21     -2.66943768     13.07802956     -3.71297128
 B               9.89138773     15.98744300     14.64344203       5      -1      -1       0      23     -4.51748579     -3.91600217      3.61856564
