 128
 energy=-547.94984391912283 cutoff=4.00000000 nneightol=1.20000000 pbc="T T T" Lattice="20.07638462       0.00000000       0.00000000     -10.03819231      17.38665923       0.00000000       0.00000000       0.00000000      30.00000000" Properties=species:S:1:pos:R:3:Z:I:1:map_shift:I:3:n_neighb:I:1:force:R:3
 Ti              6.31620620      9.41865257     16.36989084      22      -1      -1      -1      19     -0.10392451      0.95700285      0.11358887
 N               4.73948680     10.24562466     15.35235225       7      -1      -1      -1      21      6.37467301     -4.23073472      3.69633158
 N               0.28057736      1.32145498     14.99514959       7       0       0       0      23     -8.67896526      0.88984879      1.00463043
 N               2.26977908      1.66406619     14.96040272       7       0       0       0      22      6.68860455     -7.62918946      0.54312371
 N               4.96199153      1.22438745     15.02323509       7       0       0      -1      23      0.56466286      5.80975913     -1.94063609
 N               7.50337624      1.43139676     14.96148726       7       0       0       0      24      4.07228982      2.23055245     -0.19502713
 N              10.23760844      1.40919166     15.16971886       7      -1       0      -1      24     -3.30896132      0.67116458     -4.16971477
 N              12.42485570      1.40121694     15.21430326       7      -1       0      -1      22      2.92964130      5.61958538     -3.92809851
 N              14.80748211      1.53350649     15.05996548       7      -1       0      -1      23      3.58713185      0.76116695     -1.16072490
 N              17.53901377      1.66258368     14.80415556       7      -1       0       0      23      2.47374068     -1.74015826      5.20337436
 N              -1.33928736      3.46416720     14.96303337       7       0       0       0      23     11.28006580      4.74235254     -1.50985140
 N               1.22632951      3.71668971     15.05837241       7       0       0      -1      24      0.12002924     -6.74674096     -2.44741619
 N               3.83899378      3.64169437     14.87562255       7       0       0       0      24     -4.30312487     -3.33780141     -0.12635159
 N               6.26239528      3.47871329     14.87159211       7       0       0       0      24     -3.54734539      3.56786908     -0.60403543
 N               8.82432153      3.71524569     15.08448112       7      -1       0      -1      23     -1.72422618     -3.81926605     -4.30288262
 N              11.34131994      3.76626417     15.19216450       7      -1       0      -1      24     -0.29606880     -5.42190480     -3.75108547
 N              13.85361315      3.46005490     15.01013716       7      -1       0      -1      22     -0.53684021      7.94203820      0.66167536
 N              16.43207208      3.62060732     15.02636359       7      -1       0      -1      21     -8.73199775     -3.51120851      0.38763189
 N              -2.52224474      5.89395666     15.01862438       7       0       0      -1      24      4.45692059     -3.35372255     -1.13042386
 N              -0.13433837      5.71095507     15.00302318       7       0       0      -1      23     -1.46660175      4.76752938     -1.03169230
 N               2.51143200      5.88295184     15.03342938       7       0       0      -1      23     -1.30926687     -3.83888076     -2.02991718
 N               4.90672743      5.64972348     14.89572174       7       0       0       0      21      6.20621739      6.52657317     -0.19756669
 N               7.64775837      5.75078720     14.85492663       7      -1       0       0      24      0.33368484      3.23826136      0.65401320
 N               9.92514556      5.72197506     15.01229954       7      -1       0      -1      22      6.06407759      6.75311948      1.24289477
 N              12.53825610      5.67867819     14.75533928       7      -1       0       0      23     -1.96628563      2.26734887      4.86424186
 N              15.01728094      5.90109231     14.86324843       7      -1       0       0      24     -1.59018959     -3.05370650      3.95331015
 N              -3.79931368      7.93615900     15.03336222       7       0       0      -1      24      2.17275130     -1.11356947     -0.84601143
 N              -1.09410870      7.74289184     14.97574654       7       0       0       0      22     -3.12621705      9.50573971     -0.77085170
 N               1.09773756      8.13291388     15.01931667       7       0       0      -1      23     10.24113704     -9.52263275      0.38909816
 N               3.86284020      7.97743881     15.14224892       7       0       0      -1      23     -7.91488521      0.39633707     -0.76814223
 N               6.28087886      7.76141592     15.43147700       7      -1       0      -1      23     -4.09389964      1.66056608      0.36864592
 N               9.00615965      7.90776489     15.00055116       7      -1       0      -1      22    -12.84056223      7.38689272      2.63819134
 N              11.19577816      8.03291095     14.86554171       7      -1       0       0      24      3.51381540     -7.79753819      3.09072269
 N              13.93808679      8.09210582     14.88568803       7      -1       0       0      22    -11.13722009      0.84281002     -0.00480546
 N              -5.04926581     10.28776597     15.07171571       7       0      -1      -1      23     -1.02171017     -5.55927508     -2.70030393
 N              -2.59504116     10.17123025     15.08788890       7       0      -1      -1      24      3.01842685    -10.93283698     -0.95477638
 N               0.02816647      9.95932305     14.91704963       7       0      -1       0      23     -2.72383982      1.61399199     -0.13366232
 N               2.57533887     10.09801015     14.83371182       7       0      -1       0      23      0.52721145      0.87443884      2.07856943
 N               7.49166855     10.15871460     15.49044462       7      -1      -1      -1      23      7.20561560      3.67478895     -0.58020524
 N              10.12133843     10.10234324     14.96002398       7      -1      -1       0      23      1.44828910      4.66986710      0.73565328
 N              12.70195761     10.27135481     15.06458533       7      -1      -1      -1      23     -3.78004695     -4.00919834     -1.42066016
 N              -6.41255579     12.18594290     14.95643783       7       0      -1       0      23      1.44183270      5.58898118     -0.24551125
 N              -3.75952416     12.36067227     15.02696739       7       0      -1      -1      24     -0.63576944      0.16311385     -1.10498000
 N              -1.18896399     12.59591953     14.97969821       7       0      -1       0      22     -5.57788643    -15.55198178     -0.65732498
 N               1.01770386     12.48316457     14.85699218       7       0      -1       0      23      7.80234720      0.07787444      1.00685131
 N               3.92889484     12.30123349     14.97416551       7      -1      -1       0      23    -11.94402613      7.01312067     -0.88671770
 N               6.19703187     12.13824618     15.17443556       7      -1      -1      -1      23     -3.16728312      5.54429253      1.27468250
 N               8.83723325     12.38332094     14.88995249       7      -1      -1       0      23     -2.89383695      1.67476544      2.18069103
 N              11.20292848     12.33486804     14.94694762       7      -1      -1       0      23      7.91940663     -0.31684803     -0.01426589
 N              -7.51993802     14.26147662     14.83450774       7       0      -1       0      21      1.35229684      0.64416365      1.96453128
 N              -5.10785887     14.55042330     15.10344341       7       0      -1      -1      24      5.07809409     -2.25221207     -1.70762775
 N              -2.39292127     14.50261826     15.05202044       7       0      -1      -1      23     -4.04475171     -5.04699525     -1.46436351
 N               0.06184210     14.38088376     15.00761615       7       0      -1      -1      24     -2.93477556      2.96834345     -0.56100761
 N               2.40570407     14.51038253     14.98341593       7      -1      -1       0      23     11.33058996      4.79056388      0.34844389
 N               5.16655707     14.43706603     15.01979306       7      -1      -1      -1      22     -8.92098091     -0.31952332     -0.75191878
 N               7.61512063     14.65215060     14.78209628       7      -1      -1       0      23      0.83057551     -0.86828452      7.43853681
 N              10.06095361     14.43313370     14.82110470       7      -1      -1       0      23      5.82218321      0.17618132      1.00761512
 N              -8.90696986     16.89184396     14.95018955       7       0      -1       0      23      1.36437795    -12.76280847      1.31245743
 N              -6.23942633     16.68229375     14.98449583       7       0      -1       0      24     -0.78279383      3.94040506      1.32533770
 N              -3.68170380     16.64085913     15.11023765       7       0      -1      -1      22      6.41295944      1.57828967     -2.95269513
 N              -1.40303953     16.70614185     15.01022203       7       0      -1      -1      24      4.80973772     -2.00248701     -0.64161294
 N               1.33800148     16.77960845     15.11713460       7      -1      -1      -1      24    -10.92625350     -8.93532012      0.15106938
 N               3.60288002     16.55711739     15.08598827       7      -1      -1      -1      23      5.86597787      4.11950537     -2.77288123
 N               6.48931141     16.45302097     14.91698400       7      -1      -1       0      21    -11.08614219      6.52357528      0.99605785
 N               8.66854805     16.72434395     14.87016523       7      -1      -1       0      23      5.47807921      2.30332691      3.13136872
 B               1.37873554      0.67973560     15.02971748       5       0       0      -1      23     -1.39891252      3.68380609     -0.06579996
 B               3.62450101      0.85179604     15.05075749       5       0       0      -1      21      0.27241078     -5.73296637     -0.95986280
 B               6.41998702      0.70962405     14.78515463       5       0       0       0      24     -6.81032620     -4.26909616      3.33787683
 B               8.80215234      0.82213385     15.16171135       5       0       0      -1      23      2.95533764     -2.69641782     -1.87811653
 B              11.44831395      0.53100218     14.83050552       5      -1       0       0      22     -5.01777071     12.58338682      1.92315751
 B              13.62507473      0.93646432     14.79325952       5      -1       0       0      21      0.72638740     -5.85793322      4.34075017
 B              16.49579798      0.70718102     15.24179341       5      -1       0      -1      23     -2.07687777     -1.13736332     -5.42349360
 B              18.83016809      0.73532758     15.18528368       5      -1       0      -1      23      1.71071571      3.02812214     -4.77628565
 B               0.10745375      2.67614673     14.80441843       5       0       0       0      23      0.71204180      3.65378135      3.04758116
 B               2.65705252      2.79685173     14.93043274       5       0       0       0      23     -4.03931943     12.86286929      0.17259850
 B               4.89405362      2.80842000     14.84734854       5       0       0       0      22      6.74554044     -2.37782960      1.05410314
 B               7.42225244      2.86057720     14.89035031       5       0       0       0      23      4.56933641      1.33568348      1.31554751
 B               9.97078983      2.91342017     14.67110884       5      -1       0       0      23      3.29597242     -0.64258789      7.82630864
 B              12.64772856      2.94137026     14.89080838       5      -1       0       0      24     -6.29167395     -2.65632075      3.95934712
 B              15.06005795      2.94842098     14.89823609       5      -1       0       0      23      3.54657544     -3.84185016      1.78650197
 B              17.61630047      3.17602766     15.19699360       5      -1       0      -1      22     -6.76244526    -13.67936552     -0.75005365
 B              -1.31455806      4.99804802     14.92681162       5       0       0       0      22     -1.86134156     -0.12577374      0.74668948
 B               0.92865205      5.00495606     14.75895472       5       0       0       0      23     11.13668366      3.54713373      2.05090811
 B               3.73014848      5.04364908     14.87814953       5       0       0       0      24     -2.93680044      0.21816672      0.52004470
 B               6.41844048      5.15098880     14.90162392       5       0       0       0      23     -4.95794593     -5.19571910     -0.67413620
 B               8.93827188      5.09059685     14.71582995       5      -1       0       0      22     -9.22464019     -3.72763325      2.10480038
 B              11.08677362      5.03306448     15.00525251       5      -1       0      -1      23      6.07997834      3.31105472     -0.59209079
 B              13.78322269      5.11051410     15.28804754       5      -1       0      -1      23      2.03288424     -2.21556990     -7.16362904
 B              16.53180206      4.84997005     14.97461465       5      -1       0       0      24     -3.61035361     13.22177892     -0.24615926
 B              -2.35067309      7.37239417     14.85268388       5       0       0       0      23     -7.10447068     -6.73215964      2.03624342
 B               0.14421296      7.34147445     14.94503749       5       0       0       0      22     -4.40690392     -9.57688538      0.29527901
 B               2.56901503      7.16359241     14.87767730       5       0       0       0      23     -1.23446608      4.77783490      2.19042861
 B               4.91066423      7.30495963     15.00341484       5       0       0      -1      21      5.50707300     -8.48337707      1.40096224
 B               7.42565232      7.18591337     15.36873668       5      -1       0      -1      22      7.00678289     -3.86811827     -4.92964023
 B               9.85651706      7.19546456     15.14863649       5      -1       0      -1      22     13.07351951     -4.60850860     -1.69655485
 B              12.55062637      7.12110313     15.17117416       5      -1       0      -1      23     -3.46511948      1.62035162     -5.54627190
 B              14.86466282      7.32902115     15.11754253       5      -1       0      -1      23     11.74052011     -5.22326418     -1.81737751
 B              -3.78480448      9.25052344     14.88163157       5       0      -1       0      22     -2.79643194      7.24443826      2.65001677
 B              -1.31782135      9.32229518     14.96172714       5       0      -1       0      23      4.73311101     -0.84859197      0.81074629
 B               1.38350835      9.28415478     14.84078784       5       0      -1       0      23     -3.03985829     12.01023254     -0.12287790
 B               3.85720382      9.40697475     15.28697657       5       0      -1      -1      23    -10.53741049     -2.21360126     -3.35700842
 B               8.92295126      9.54288118     15.30831723       5      -1      -1      -1      22     -1.95536495     -3.16587459     -2.03410363
 B              11.38069893      9.32959851     15.05378873       5      -1      -1      -1      22     -0.25694428      6.53859164     -0.97187443
 B              13.79817853      9.49449719     14.68229035       5      -1      -1       0      23      3.23980891      1.84450709      5.02913374
 B              -5.28477353     11.66213461     15.13467869       5       0      -1      -1      23     13.03185780     -3.44959297     -0.88527163
 B              -2.39276953     11.35013020     14.87085267       5       0      -1       0      23     -3.50147898     15.45978262      1.00924755
 B              -0.09821715     11.87076893     14.99621549       5       0      -1       0      21      1.93372656     -9.81488329     -0.49452874
 B               2.40088439     11.58101202     15.14493443       5       0      -1      -1      21     -1.60117476      0.10488453     -4.31138139
 B               4.78888935     11.48410482     15.17667842       5      -1      -1      -1      22     11.05896743      3.51853895      0.48692728
 B               7.43748114     11.75766112     15.16401834       5      -1      -1      -1      22      3.73014837     -3.70799405     -0.06308476
 B              10.09427529     11.73621160     14.85625499       5      -1      -1       0      22     -3.86572681     -6.39777662      1.02245243
 B              12.60507336     11.60877433     14.89965360       5      -1      -1       0      24    -11.26772240     -2.26321785      0.45200035
 B              -6.22129212     13.53409772     15.05887298       5       0      -1      -1      22     -2.24041142      8.14069572     -1.07194726
 B              -3.74854678     13.89672944     14.86815478       5       0      -1       0      23     -0.33020804     -3.35828898      3.38569798
 B              -1.28734230     13.67418598     14.98647205       5       0      -1       0      23      4.22157617     14.85898730      0.32430337
 B               1.38285548     13.90816457     14.87438365       5       0      -1       0      22    -10.19332252     -7.45782235      0.30625415
 B               3.86407847     13.74818685     14.97037377       5      -1      -1       0      23     -2.38652251      0.37722610      0.44513519
 B               6.24617896     13.93115382     15.28862791       5      -1      -1      -1      22     12.13332321     -5.43046473     -3.39962227
 B               8.98745802     13.83290477     15.18246181       5      -1      -1      -1      22    -10.09194534     -1.41502592     -3.95714198
 B              11.35613138     13.70530808     14.92489413       5      -1      -1       0      22     -2.35487173      0.43379439     -0.76446196
 B              -7.52108233     16.07118942     15.26547357       5       0      -1      -1      24     -0.89545443      1.03764633     -4.96867845
 B              -4.78699121     16.04312715     14.94958009       5       0      -1       0      23    -10.35103283     -2.55399354      1.62947676
 B              -2.40349089     15.76388839     14.83111694       5       0      -1       0      23     -2.79870613      7.23310376      2.48176441
 B              -0.06221123     15.79635140     14.92998698       5       0      -1       0      23     -0.87869047      5.31171814      1.55349441
 B               2.35685763     16.14236809     15.07032937       5      -1      -1      -1      22      7.19754141     -9.65166632     -0.12651124
 B               4.89580971     15.74271426     14.85915976       5      -1      -1       0      21      2.40546692      8.60711114      2.11129249
 B               7.55459014     16.17024203     15.32843082       5      -1      -1      -1      22      5.32472096    -11.95462589     -3.52063221
 B               9.81287208     15.73072418     14.91015976       5      -1      -1       0      22      0.74987193      8.96564991     -0.53606369
