 128
 energy=-544.27693664309675 cutoff=4.00000000 nneightol=1.20000000 pbc="T T T" Lattice="20.07638462       0.00000000       0.00000000     -10.03819231      17.38665923       0.00000000       0.00000000       0.00000000      30.00000000" Properties=species:S:1:pos:R:3:Z:I:1:map_shift:I:3:n_neighb:I:1:force:R:3
 Ti              6.31968236      9.42008240     16.37245895      22      -1      -1      -1      19     -0.19057052      0.93511873      0.08238140
 N               4.73225664     10.24263110     15.34633657       7      -1      -1      -1      21      6.33985030     -4.84931504      3.78430861
 N               0.30799042      1.30035474     14.99936941       7       0       0       0      23     -9.27827220      1.14887455      1.16507282
 N               2.24796113      1.68226310     14.95604076       7       0       0       0      22      6.35357207     -5.96737570      0.42892300
 N               4.95379618      1.20236653     15.03066467       7       0       0      -1      22      0.24987446      5.56068468     -2.12762972
 N               7.50975144      1.43743768     14.95540112       7       0       0       0      23      3.75513525      1.78077386     -0.23001606
 N              10.26246008      1.40447995     15.18370482       7      -1       0      -1      23     -3.28168149      0.83730896     -4.58610260
 N              12.40940526      1.40448336     15.24371142       7      -1       0      -1      22      2.69547137      5.57129876     -4.31639872
 N              14.77854244      1.54340237     15.06581090       7      -1       0      -1      23      2.56816232      0.94844910     -1.46748938
 N              17.53967773      1.69528303     14.78195604       7      -1       0       0      23      2.32943199     -2.23644615      5.75323363
 N              -1.32182137      3.44804147     14.95615617       7       0       0       0      23      9.85388491      3.97167717     -1.30613773
 N               1.22097276      3.71798383     15.06920596       7       0       0      -1      23      0.43334338     -6.38946455     -2.80912040
 N               3.83972483      3.64076367     14.87338218       7       0       0       0      23     -3.76228808     -3.01029076     -0.15683360
 N               6.24870171      3.46635477     14.86511693       7       0       0       0      23     -3.37279090      3.60461131     -0.62530043
 N               8.82177559      3.72234660     15.10631160       7      -1       0      -1      23     -1.33402112     -3.80059573     -4.89397414
 N              11.34702018      3.77528031     15.20372799       7      -1       0      -1      23     -0.19286388     -5.32271252     -3.98971250
 N              13.86279643      3.44917159     15.01220354       7      -1       0      -1      22     -1.05773051      7.67629863      0.63400833
 N              16.43331655      3.61014630     15.02637804       7      -1       0      -1      21     -8.75310465     -2.37958068      0.38029668
 N              -2.51355045      5.89842328     15.02415882       7       0       0      -1      24      4.36121052     -3.25560315     -1.25036953
 N              -0.16156067      5.70872386     15.01100144       7       0       0      -1      22     -1.05480331      4.40845624     -1.16115150
 N               2.50248418      5.88954987     15.03965890       7       0       0      -1      23     -1.11706834     -3.65767184     -2.20176141
 N               4.90461842      5.64948732     14.89401306       7       0       0       0      21      5.76471556      6.20113070     -0.30537813
 N               7.66527153      5.75630671     14.85247200       7      -1       0       0      24     -0.28416874      2.76003344      0.62072503
 N               9.91993527      5.72521904     15.02100091       7      -1       0      -1      22      5.18864833      5.90789961      1.15928267
 N              12.53023795      5.66165525     14.73438009       7      -1       0       0      23     -1.85943776      2.20607413      5.47441656
 N              15.00847450      5.90613318     14.84475459       7      -1       0       0      24     -1.61751974     -2.88797771      4.38807229
 N              -3.79673481      7.92505187     15.03584817       7       0       0      -1      24      2.11403823     -0.82763985     -0.92789072
 N              -1.06820181      7.72761922     14.97882349       7       0       0       0      22     -4.02738904      9.12374332     -0.93481219
 N               1.10221065      8.13576250     15.02161947       7       0       0      -1      23     10.32691917     -8.42881469      0.18881803
 N               3.86229619      7.98280267     15.15657554       7       0       0      -1      23     -7.41331579     -0.37047873     -0.93379861
 N               6.27414316      7.76327002     15.42707798       7      -1       0      -1      23     -3.35820286      1.16413850      0.35003871
 N               9.01033615      7.91644011     14.98488325       7      -1       0       0      22    -11.40243850      6.29432549      3.03757317
 N              11.19020821      8.01981827     14.85043307       7      -1       0       0      24      3.65884655     -6.99352283      3.58330517
 N              13.93058572      8.11490256     14.87867124       7      -1       0       0      22     -9.32519285     -0.22813078      0.24840223
 N              -5.05420716     10.30015956     15.08034829       7       0      -1      -1      23     -0.88662010     -5.68091427     -3.01553418
 N              -2.59970239     10.14157836     15.09592169       7       0      -1      -1      24      3.30239050     -8.44099556     -1.48292671
 N               0.02894865      9.93895578     14.91842049       7       0      -1       0      22     -2.36166939      1.47158985     -0.21912989
 N               2.59316194     10.09374294     14.82802951       7       0      -1       0      23      0.23794887      1.28745584      2.19080144
 N               7.47841749     10.15477976     15.50006532       7      -1      -1      -1      23      7.54382760      3.70276907     -0.55304290
 N              10.13542875     10.10631849     14.95654943       7      -1      -1       0      23      1.02204260      4.63986524      0.91454141
 N              12.71534665     10.28320426     15.07967476       7      -1      -1      -1      23     -3.67406526     -4.35340527     -1.57380888
 N              -6.43559266     12.18017565     14.94282578       7       0      -1       0      22      1.90995203      4.58410512     -0.26156962
 N              -3.76168471     12.36894074     15.03386153       7       0      -1      -1      23     -0.44830881      0.24188473     -1.24298787
 N              -1.19395406     12.60112879     14.97321485       7       0      -1       0      22     -6.12491547    -13.94854753     -0.91965411
 N               0.99926581     12.51199946     14.84861474       7       0      -1       0      23      7.61790846     -0.57878351      1.01833315
 N               3.92480741     12.31110484     14.96662000       7      -1      -1       0      23    -10.88376091      6.01621533     -0.60055690
 N               6.17303365     12.12409708     15.17959088       7      -1      -1      -1      23     -2.20323755      5.36592193      1.40409516
 N               8.83292805     12.39328342     14.88810714       7      -1      -1       0      23     -3.02601151      1.53986746      2.34926019
 N              11.20312060     12.33785406     14.95230301       7      -1      -1       0      23      7.03721297     -1.15412533     -0.03483571
 N              -7.51462542     14.22966544     14.82699637       7       0      -1       0      21      1.38331961      0.06240604      1.81262455
 N              -5.10958645     14.55830326     15.10597687       7       0      -1      -1      24      5.32732688     -2.08608449     -1.87730188
 N              -2.37766660     14.49337893     15.06205424       7       0      -1      -1      23     -5.03721073     -3.79848843     -1.62582918
 N               0.06780176     14.37099513     15.01668795       7       0      -1      -1      24     -3.07684680      3.00177563     -0.52773264
 N               2.42264384     14.52512421     14.98723784       7      -1      -1       0      24      9.77757310      3.68491638      0.20812860
 N               5.16923870     14.42703627     15.02415679       7      -1      -1      -1      21     -7.05924651     -0.68915262     -0.46383952
 N               7.63296076     14.67778713     14.75715187       7      -1      -1       0      23      1.45977850     -0.78431509      8.45670545
 N              10.08083862     14.42386141     14.81000099       7      -1      -1       0      23      4.17913551      0.39285634      1.48443331
 N              -8.92500042     16.89539165     14.94048986       7       0      -1       0      23      1.30351785    -12.00431510      1.43741339
 N              -6.23653129     16.69756858     14.97089615       7       0      -1       0      23     -0.86830159      4.00740555      1.52213474
 N              -3.64687884     16.64266789     15.13029938       7       0      -1      -1      22      5.34895890      0.81229334     -3.38409535
 N              -1.41223886     16.71166816     15.00783462       7       0      -1      -1      24      4.87540242     -2.13309170     -0.73715363
 N               1.32458752     16.77291854     15.12207518       7      -1      -1      -1      23    -10.64701865     -7.81819966     -0.20931046
 N               3.58804016     16.54818530     15.09748835       7      -1      -1      -1      23      6.24866975      4.27067423     -3.05728043
 N               6.48880858     16.43885766     14.89953603       7      -1      -1       0      22     -8.67785484      5.55452244      1.83939712
 N               8.66149448     16.74235842     14.85774178       7      -1      -1       0      23      5.09083912      2.42919340      3.56325280
 B               1.39192704      0.68637364     15.03185297       5       0       0      -1      23     -0.97270350      2.29327585     -0.04790479
 B               3.59473249      0.85845048     15.05494995       5       0       0      -1      21      2.69864057     -6.53266170     -0.95877576
 B               6.42280823      0.69420310     14.76137682       5       0       0       0      24     -6.14701181     -3.74345875      3.86283246
 B               8.81575688      0.83365324     15.18522377       5       0       0      -1      23      2.89739840     -2.88877156     -2.30633381
 B              11.45641361      0.53709204     14.79973845       5      -1       0       0      22     -5.20696570     10.93918954      2.51860184
 B              13.59465530      0.94564654     14.77019530       5      -1       0       0      21      1.28622983     -5.22290378      4.87834052
 B              16.51189158      0.70111140     15.26848054       5      -1       0      -1      23     -1.49557731     -1.48197711     -6.13731235
 B              18.83634864      0.75062182     15.20789493       5      -1       0      -1      23      1.95310568      2.99249855     -5.30471684
 B               0.12965277      2.64785660     14.78080930       5       0       0       0      23     -1.12446929      4.67528955      3.34725265
 B               2.66620301      2.83101194     14.92923593       5       0       0       0      23     -4.81654095     11.38873417      0.26149480
 B               4.89185852      2.78627869     14.83896154       5       0       0       0      21      6.50305420     -2.49546247      1.17074880
 B               7.41671859      2.86198059     14.88834515       5       0       0       0      23      4.40255726      1.24658650      1.38831126
 B               9.97344589      2.91351320     14.63085652       5      -1       0       0      23      2.84941628     -0.21257224      8.73976243
 B              12.64139314      2.93661804     14.87874791       5      -1       0       0      24     -5.46545788     -2.08453446      4.47205765
 B              15.07319591      2.94111816     14.88030712       5      -1       0       0      22      2.92954942     -3.66380632      2.04191090
 B              17.60605558      3.18091684     15.22680834       5      -1       0      -1      22     -5.00571754    -13.18940777     -1.00200042
 B              -1.33110149      4.98284447     14.92445848       5       0       0       0      22     -1.40400341     -0.41076290      0.69871466
 B               0.90406531      5.00771332     14.73063606       5       0       0       0      23     10.89001763      3.34496769      2.39752401
 B               3.71369818      5.04589009     14.87624524       5       0       0       0      24     -2.37320427      0.16341006      0.53747024
 B               6.42374731      5.14880140     14.90314083       5       0       0       0      23     -4.78410592     -4.97042715     -0.77254004
 B               8.93187167      5.08376247     14.68900540       5      -1       0       0      21     -8.31143530     -3.28121164      2.57900303
 B              11.06851522      5.03631165     15.00483979       5      -1       0      -1      22      6.81371369      2.85537761     -0.60560452
 B              13.78727567      5.10427451     15.32464780       5      -1       0      -1      23      1.80267830     -2.40991322     -8.21958471
 B              16.55304262      4.85614052     14.96529219       5      -1       0       0      24     -3.95999716     12.04595717     -0.17569621
 B              -2.34417243      7.36975050     14.83620384       5       0       0       0      23     -6.43130129     -5.79929050      2.34419675
 B               0.15839598      7.32618911     14.94385510       5       0       0       0      22     -4.03240826     -9.23865758      0.36128743
 B               2.57679996      7.16823887     14.86338487       5       0       0       0      23     -1.63012367      4.90555991      2.48713391
 B               4.91519799      7.29807994     14.98392346       5       0       0       0      20      4.89796237     -8.01673559      1.73192040
 B               7.43589507      7.17239716     15.39505251       5      -1       0      -1      22      6.17164686     -3.16819381     -5.32091867
 B               9.87019013      7.17110628     15.16348356       5      -1       0      -1      22     11.53127777     -2.92541727     -1.98082549
 B              12.54484088      7.10627881     15.19810358       5      -1       0      -1      22     -3.71925005      1.51492396     -6.21869666
 B              14.87321572      7.32321160     15.13755668       5      -1       0      -1      23     10.17947243     -3.98776401     -2.51357099
 B              -3.79771527      9.24463614     14.86590238       5       0      -1       0      22     -2.58957873      6.97903190      3.02053796
 B              -1.30867053      9.30285697     14.96444548       5       0      -1       0      23      4.48254235     -1.23177347      0.87382086
 B               1.40011271      9.30435099     14.82464899       5       0      -1       0      23     -3.77957857     10.31356454      0.13825362
 B               3.84680474      9.39839567     15.30818641       5       0      -1      -1      23     -9.88917685     -1.84477008     -3.38084776
 B               8.93316396      9.55063488     15.32870302       5      -1      -1      -1      21     -1.85652217     -3.17166674     -2.41332931
 B              11.39307367      9.33495778     15.06598233       5      -1      -1      -1      22     -0.09457659      5.95785453     -1.22463760
 B              13.81009401      9.51616558     14.64441965       5      -1      -1       0      23      2.76032774      1.48478208      5.87713859
 B              -5.28667874     11.66617547     15.15736032       5       0      -1      -1      22     12.06778899     -3.05026184     -1.19756125
 B              -2.38731003     11.36223552     14.84866136       5       0      -1       0      23     -3.71950089     12.81043295      1.61301035
 B              -0.11079292     11.88937872     15.00324087       5       0      -1      -1      22      2.10796531    -10.82673795     -0.45233015
 B               2.37670326     11.58111895     15.17275396       5       0      -1      -1      21     -1.40009973      0.44972083     -4.81542104
 B               4.79097599     11.46839986     15.17275769       5      -1      -1      -1      22      9.68169373      4.64480394      0.28238607
 B               7.42468723     11.76448525     15.16407652       5      -1      -1      -1      22      3.60202386     -3.77504097     -0.07027530
 B              10.08380558     11.73605887     14.84375011       5      -1      -1       0      22     -3.03225586     -5.91995734      1.20547914
 B              12.57497394     11.60374349     14.88807915       5      -1      -1       0      22    -10.42646644     -1.48518752      0.59771302
 B              -6.21869201     13.52135873     15.06370738       5       0      -1      -1      22     -2.21892303      8.13610919     -1.16618248
 B              -3.74470289     13.91127376     14.85204988       5       0      -1       0      23     -0.36862807     -3.63984071      3.81128680
 B              -1.27796562     13.70698968     14.99102983       5       0      -1       0      22      4.81957497     12.05450051      0.41688823
 B               1.37582694     13.91130077     14.86199667       5       0      -1       0      22     -8.59102006     -6.65225389      0.50140029
 B               3.87700934     13.74333821     14.97026685       5      -1      -1       0      23     -2.64193604      0.63842763      0.51309518
 B               6.28911539     13.93500160     15.32414640       5      -1      -1      -1      21      7.91688363     -4.83842985     -4.17497867
 B               8.98609180     13.83508803     15.21596572       5      -1      -1      -1      22     -8.52421207     -0.67313206     -4.84112150
 B              11.35884870     13.69569426     14.92816607       5      -1      -1       0      22     -2.42091350      0.79964401     -0.80726917
 B              -7.52524185     16.08928375     15.29880395       5       0      -1      -1      23     -0.95909923      1.69869884     -5.37429678
 B              -4.78159308     16.05598086     14.93858619       5       0      -1       0      23     -9.48911945     -2.05847089      1.95479151
 B              -2.39004260     15.75832233     14.81343928       5       0      -1       0      24     -3.05743958      7.15589723      2.80201255
 B              -0.07524621     15.78315107     14.91756099       5       0      -1       0      23     -0.78055892      7.29205849      1.70264979
 B               2.35200509     16.14392118     15.08198809       5      -1      -1      -1      21      6.60447431     -9.63239446     -0.06810974
 B               4.88205618     15.73529376     14.83765451       5      -1      -1       0      21      2.85670806      8.43638867      2.54765244
 B               7.57812743     16.16979102     15.37238040       5      -1      -1      -1      22      3.44659722    -10.64405480     -4.70233153
 B               9.77761209     15.72883857     14.89610713       5      -1      -1       0      22      2.56559760      8.85964065     -0.89301902
