 128
 energy=-586.28356831558540 cutoff=4.00000000 nneightol=1.20000000 pbc="T T T" Lattice="20.07638462       0.00000000       0.00000000     -10.03819231      17.38665923       0.00000000       0.00000000       0.00000000      30.00000000" Properties=species:S:1:pos:R:3:Z:I:1:map_shift:I:3:n_neighb:I:1:force:R:3
 Ti              6.36134008      9.45456479     16.41542177      22      -1      -1      -1      21      0.12538733     -0.61137492     -0.42507799
 N               4.81998050      9.92576043     15.58207282       7      -1      -1      -1      21     -4.04283040      1.48137319     -1.62738568
 N               0.13519678      1.25832116     15.25690042       7       0       0      -1      23     -1.72332089      1.99812160     -1.90468127
 N               2.62546789      1.79360358     14.91561175       7       0       0       0      23     -6.70821499      2.95251200      0.03626086
 N               4.98514886      1.04278614     14.91323009       7       0       0       0      21      2.30694572      5.12719433      0.63717817
 N               7.84060915      1.44461820     14.85980439       7       0       0       0      23     -3.59966483     -1.45708722      2.07048909
 N              10.17370836      1.75964100     14.93870908       7      -1       0       0      26      0.43350918     -5.61191154      1.37398043
 N              12.27183530      1.63164348     15.22620738       7      -1       0      -1      21      0.65361424     -4.25800972      3.19490856
 N              13.97194929      1.85879499     14.87918198       7      -1       0       0      23      2.40762605      5.59836304      0.98366319
 N              17.71767364      1.45746116     14.95667972       7      -1       0       0      24    -10.70375500      6.15885048      0.11535113
 N              -1.15288343      3.38716729     14.94620196       7       0       0       0      22      1.99463126      1.89546996     -0.59948950
 N               0.92459815      3.72988696     14.84779132       7       0       0       0      24      4.36573115     -2.95112478      1.17028244
 N               3.77933207      3.61870387     14.81525732       7       0       0       0      22      0.15119316     -1.76755240      0.75923458
 N               6.24557159      3.43638636     14.72709971       7       0       0       0      23     -4.16387489     -2.85867083      1.26552426
 N               8.78311831      3.54324191     14.85369429       7      -1       0       0      22      1.64653008      4.86007550      3.76201303
 N              11.16593788      3.73749426     14.91924802       7      -1       0       0      23      2.98068099     -3.27707092      2.25600170
 N              13.75472119      3.48023628     15.04894255       7      -1       0      -1      22      1.12829362      5.66684689     -0.96268594
 N              16.36849074      3.67894522     15.15100731       7      -1       0      -1      21     -2.40741565     -1.27796210     -1.23700972
 N              -2.23205614      5.66237475     14.96278035       7       0       0       0      23    -10.76191089      1.90442805      0.76007456
 N              -0.47361141      5.65549754     14.91747680       7       0       0       0      23      7.14130194      7.58894024      1.63022450
 N               2.23434262      5.64957061     14.77970484       7       0       0       0      22      7.22101045      3.41676305      2.39858859
 N               4.98734901      5.59533577     14.76083558       7       0       0       0      23     -3.74714599      5.09635250      1.45320106
 N               7.42118187      5.64974104     14.77666161       7      -1       0       0      22      4.02991060      1.25115599      0.46348513
 N              10.02328438      5.69260147     15.09897926       7      -1       0      -1      23     -2.89120695      4.84982000     -0.10478879
 N              12.55253172      5.57470368     14.99481702       7      -1       0       0      25      1.03810049     -1.65643735     -3.18786383
 N              15.04056167      5.70593435     15.01623231       7      -1       0      -1      23     -3.24987476      4.06342359     -3.56688402
 N              -3.61782854      7.99699609     14.91701983       7       0       0       0      23     -0.36868426     -2.17043567      1.07235839
 N              -1.11370755      7.54315308     14.84321083       7       0       0       0      22      3.46375192      5.22440934      1.12871858
 N               1.40692158      8.03767155     14.87735593       7       0       0       0      24      1.01292014     -3.43275898      1.34847025
 N               3.77208101      7.74412146     15.25747421       7       0       0      -1      21      0.06909854      4.41894171      0.46987428
 N               6.41329425      7.60418000     15.44652601       7      -1       0      -1      20     -1.04534241      0.86958964      0.16617737
 N               8.81268924      8.04458919     15.29767041       7      -1       0      -1      22      2.56692844     -1.03561018     -2.83519753
 N              11.38440980      7.76780247     15.05039610       7      -1       0      -1      23     -1.05531561      3.54528151     -2.55952829
 N              13.73329063      8.13322519     14.83923952       7      -1       0       0      22      2.95528148     -8.33716735     -2.10222956
 N              -5.01059751     10.33544041     14.96474456       7       0      -1       0      23     -0.31206133     -4.97019390      1.27753722
 N              -2.49077020      9.31246289     14.94024134       7       0      -1       0      22     -0.22890423     -4.02614170      0.43202772
 N              -0.02358245     10.10271411     14.94316333       7       0      -1       0      22     -2.14668240     -3.60209516      0.11763801
 N               2.27038317     10.43312436     14.90644740       7       0      -1       0      21      4.51865304     -7.26602673      0.10405975
 N               7.98946654     10.33318449     15.60281828       7      -1      -1      -1      20     -4.84279190     -2.78119236      1.89931702
 N              10.25466070     10.28852487     15.07554364       7      -1      -1      -1      23     -3.35644700     -0.70950969     -1.53160917
 N              12.64463873     10.04255359     15.13403256       7      -1      -1      -1      23     -1.63379591      3.49369450     -0.21380484
 N              -6.28386587     12.34198466     14.82818256       7       0      -1       0      22     -2.26728237      4.70093526      0.92574124
 N              -3.90875960     12.45465853     15.05849826       7       0      -1      -1      22      4.09105411      0.33615493      1.16603441
 N              -1.38300096     12.49364977     14.77692080       7       0      -1       0      22      1.32628695     -4.56970780      0.45476184
 N               1.09840917     12.40708502     14.87462088       7       0      -1       0      21     -1.69507676      3.55857775     -0.71749863
 N               3.35698977     12.43061970     14.95928361       7      -1      -1       0      21     12.58943470      6.79715689      1.43713036
 N               6.34350824     12.42596568     15.44117708       7      -1      -1      -1      22     -3.12356685     -4.40007965     -1.31659867
 N               8.49156179     12.50393876     15.09124668       7      -1      -1      -1      23      8.21865368      2.35023666     -4.44791820
 N              11.03709573     12.21585739     15.04924186       7      -1      -1      -1      22      6.59133857      3.56919343     -0.12509921
 N              -7.44592993     13.37748505     14.62993828       7       0      -1       0      23     -2.04240962     -3.05169632      0.56270012
 N              -4.85630987     14.57035048     14.95048632       7       0      -1       0      23     -3.76196498     -0.11485893      1.31943168
 N              -2.56641401     14.55603965     14.95422660       7       0      -1       0      23      3.42480781     -2.33566442      0.99987922
 N               0.17530314     14.77306893     15.14468325       7       0      -1      -1      22     -0.28172712     -8.45305528      0.19211851
 N               2.74061518     14.48124615     14.93553407       7      -1      -1       0      21      1.13922719      3.11483987      1.24695834
 N               5.20278500     14.50689953     15.14408285       7      -1      -1      -1      20     -2.34851144     -0.96715608     -1.23219235
 N               7.82992469     14.63935163     15.33859832       7      -1      -1      -1      22     -1.32582014      1.34161760     -4.88325897
 N              10.07486927     14.71883093     14.85838117       7      -1      -1       0      24      4.90365874     -4.23507191     -2.10464250
 N              -8.81435042     16.70681737     14.97052880       7       0      -1       0      24     -6.31452698      4.22272609     -2.24991475
 N              -6.26121068     16.88984209     14.96847065       7       0      -1       0      22      2.76882410      1.89801740      1.36046541
 N              -3.43440084     16.58337641     15.16104074       7       0      -1      -1      23     -2.01640198     -2.54639032      1.00780719
 N              -1.16076332     16.81694384     14.82505959       7       0      -1       0      23     -1.63077848     -2.50177489     -0.66449847
 N               1.02471551     16.49656409     14.97401443       7      -1      -1       0      23      5.77137931      2.05507731      0.79563558
 N               3.79968624     16.74975173     14.93960774       7      -1      -1       0      23     -1.04263881     -6.41912343      3.66489175
 N               6.38925516     16.47897097     15.09400706       7      -1      -1      -1      23      0.18184345      4.66039048     -1.63111385
 N               8.95208404     16.96115681     15.06632754       7      -1      -1      -1      22      2.41051927     -3.32828220     -4.95991994
 B               1.34310920      0.72810527     14.92680470       5       0       0       0      23      2.53615938      3.99623705      0.68220861
 B               3.65978244      1.12663103     14.94845196       5       0       0       0      22      2.32999359    -11.29797933      0.32786766
 B               6.37736314      0.59914447     15.11003140       5       0       0      -1      23      2.91364129     -0.88555315     -1.97535683
 B               9.09847282      0.75185794     14.94814676       5       0       0       0      23     -0.79154437      5.87366263     -0.42554385
 B              11.21787608      0.61563597     15.06332421       5      -1       0      -1      24     -2.47422101      5.54113375     -0.35461923
 B              13.45116866      0.68239293     15.30048994       5      -1       0      -1      24      1.19122787      6.02961121     -3.29736275
 B              16.61894897      0.45395558     14.82227769       5      -1       0       0      20     -6.13200145      7.18839412      3.23035641
 B              18.83052200      0.99800725     14.78208534       5      -1       0       0      23     10.64682568     -8.10807778      2.68038110
 B              -0.04537350      2.65068780     15.00777316       5       0       0      -1      25      3.56449107     -0.35696949      0.44419216
 B               2.40110497      3.30889022     14.93312113       5       0       0       0      24     -5.98297362     -4.46830553     -1.39566218
 B               4.87268414      2.66366694     14.85916606       5       0       0       0      22      1.78993705     -2.83845122     -0.54449781
 B               7.55708018      2.86846842     14.94445471       5       0       0       0      24      1.60549703     -1.87540953     -1.85872366
 B              10.10504959      3.06311715     15.35201558       5      -1       0      -1      24     -3.39716810     -0.92890249     -5.10330846
 B              12.62840057      2.96122053     15.33039758       5      -1       0      -1      23     -1.58761635     -6.94370671     -4.35455915
 B              14.95589776      2.95178049     14.99686834       5      -1       0       0      24      3.55035849     -2.39539854      1.07725039
 B              17.70475694      3.11635661     15.18258579       5      -1       0      -1      23     -7.53369433     -5.71745492     -1.39783874
 B              -1.32812424      4.79941439     14.88550059       5       0       0       0      22      0.20073677     -0.31967861     -0.01707399
 B               0.97575438      5.18698556     15.03764567       5       0       0      -1      23      2.22738344     -4.15366638     -2.30190371
 B               3.75966120      4.99015096     14.86429864       5       0       0       0      23     -3.92324426      5.12529006     -1.25566324
 B               6.09680319      4.86068217     14.75758259       5       0       0       0      23      6.71569367      0.06189619     -0.21670789
 B               8.79108154      5.01458715     15.02864166       5      -1       0      -1      23     -3.41063836     -2.83109621     -2.18811502
 B              11.18153937      4.96512536     15.00393211       5      -1       0      -1      23      2.69788433      4.23153760     -0.30567967
 B              13.78665146      4.86996854     14.63807584       5      -1       0       0      21      1.10821372     -0.31716302      5.63965997
 B              16.28729816      5.26247555     14.93188816       5      -1       0       0      23      8.90680859     -5.02830826      1.29746161
 B              -2.30983707      7.18886591     15.02669655       5       0       0      -1      21    -10.11224971      2.67074604     -1.41112529
 B               0.13855794      7.00208734     14.99228377       5       0       0       0      24     -0.00243857      1.25371960     -1.82953322
 B               2.62973329      7.17026939     15.02025666       5       0       0      -1      21     -5.69262366      0.56211439     -1.77035367
 B               5.01174582      7.14563725     15.21323408       5       0       0      -1      22      3.96300144     -4.50840754     -1.26147421
 B               7.73709771      7.17410484     14.99362396       5      -1       0       0      22     -5.90142406     -4.28267952      1.96302029
 B               9.98036435      7.26926451     14.99673303       5      -1       0       0      21      4.21654443     -2.97685817      2.10586881
 B              12.66069434      6.98739501     14.67659596       5      -1       0       0      22     -4.02917307      3.54314895      4.86894128
 B              15.04924323      7.38866833     14.79457040       5      -1       0       0      22      1.09818498      0.65581444      1.98098037
 B              -3.77719419      9.42352752     15.12572140       5       0      -1      -1      23     -5.66239799     -0.18182946     -2.02262519
 B              -1.25316969      9.09978668     15.06589605       5       0      -1      -1      21      4.79468582     -3.16265004     -2.11902775
 B               1.27934699      9.44693769     14.83302915       5       0      -1       0      22     -2.54222415      2.83590388      0.83508502
 B               3.46333447      9.27668490     15.25277417       5       0      -1      -1      20      0.16848925      2.93635743     -0.50685435
 B               8.94284307      9.50014753     15.16100251       5      -1      -1      -1      21      5.58053284      2.00371692      1.03631706
 B              11.43284392      9.50412859     14.98051664       5      -1      -1       0      24     -2.50315865     -5.48902590      0.84961436
 B              13.76910412      9.43603149     15.04279215       5      -1      -1      -1      22      5.48489045      2.91478105     -0.90099628
 B              -5.12573921     11.72066807     14.96490973       5       0      -1       0      23      0.46768625     -0.84656039      0.25673063
 B              -2.69132413     11.94331505     14.94282688       5       0      -1       0      20      6.48324663     -2.96294389     -0.25642236
 B              -0.21142189     11.45785023     14.85093999       5       0      -1       0      23      5.58394601      6.59161820     -0.02570930
 B               2.35027511     11.84767434     14.77834611       5       0      -1       0      21    -10.62807668     -6.28810893      0.43518123
 B               4.62347437     11.70575615     15.16321263       5      -1      -1      -1      21     -0.38844147     -1.24062905      1.20664871
 B               7.52796711     11.60747013     15.28411895       5      -1      -1      -1      22     -0.71524889      2.43214257      0.99355394
 B               9.80824928     11.78209692     15.00141310       5      -1      -1      -1      21      1.90255588     -5.68280265      0.98030957
 B              12.57411044     11.65570180     14.89452985       5      -1      -1       0      22     -4.87927798      6.35982806      0.39489729
 B              -6.10712520     13.83432350     14.93192762       5       0      -1       0      21     -6.63384125     -1.28277885     -1.80174466
 B              -3.74712007     13.83418055     15.16138429       5       0      -1      -1      22      1.17918732      1.26181233     -1.52109023
 B              -1.33744609     13.74374580     15.03918061       5       0      -1      -1      22      2.68150433      8.68275142     -0.39627937
 B               1.48627148     14.08389584     14.92131987       5       0      -1       0      23    -10.24352319     -6.57642905      0.43286938
 B               3.93389033     13.81159598     15.05898431       5      -1      -1      -1      20     -1.06059481      0.23794947     -0.65480820
 B               6.42839589     13.67792294     15.00415127       5      -1      -1      -1      23      1.24451672      7.94496853      3.76302974
 B               8.96669697     13.92733603     14.76589080       5      -1      -1       0      23     -8.38563340      0.76894734      4.96874614
 B              11.27547030     13.63535625     14.91458113       5      -1      -1       0      24     -0.55557667     -0.02076451     -0.60245929
 B              -7.57189658     16.50804274     15.04797030       5       0      -1      -1      23      4.54685871     -7.58463798     -0.41376591
 B              -4.98838656     15.95604583     15.15924182       5       0      -1      -1      23      5.10149678      6.07924933     -1.90663029
 B              -2.23244722     15.88416236     14.94772748       5       0      -1       0      23     -2.90457899      4.73405161      0.55815276
 B              -0.22705162     15.93111555     15.02691408       5       0      -1      -1      22      2.43962354      2.10518576     -0.32496638
 B               2.42569384     15.91464003     15.16596891       5      -1      -1      -1      22      1.45483242     -0.29238481     -3.26180675
 B               5.11528355     15.92183121     15.12551257       5      -1      -1      -1      24     -4.10735327     -1.76614289     -1.17932630
 B               7.76096655     16.30818561     14.90792373       5      -1      -1       0      21      1.95437981     -8.11263720      3.43870958
 B              10.02966272     16.03518070     14.63124433       5      -1      -1       0      23      1.06174087      4.01648601      4.42227721
