 128
 energy=-638.90714307523285 cutoff=4.00000000 nneightol=1.20000000 pbc="T T T" Lattice="20.07638462       0.00000000       0.00000000     -10.03819231      17.38665923       0.00000000       0.00000000       0.00000000      30.00000000" Properties=species:S:1:pos:R:3:Z:I:1:map_shift:I:3:n_neighb:I:1:force:R:3
 Ti              6.29873597      9.41419841     16.35748527      22      -1      -1      -1      19      0.10660551      0.42523619      0.19258035
 N               4.83433394     10.22633430     15.41645379       7      -1      -1      -1      21      1.86484216     -0.99420560      1.17633571
 N               0.06543697      1.43243876     14.98202053       7       0       0       0      24     -3.22726181     -0.23673136      0.20193937
 N               2.44953094      1.48750907     14.98816422       7       0       0       0      24      4.16806687     -4.26733463      0.24692031
 N               5.01222246      1.39252744     14.96971038       7       0       0       0      24      0.61311799      2.71329449     -0.34214547
 N               7.51177094      1.42566425     14.98949695       7       0       0       0      24      1.74016607      1.41932457     -0.33352578
 N              10.08131817      1.43697924     15.06499826       7      -1       0      -1      24     -1.64878985     -0.14483623     -0.83680799
 N              12.53061564      1.43785807     15.03336649       7      -1       0      -1      24      0.87808181      2.16202122     -0.87565144
 N              14.99871537      1.48731584     15.02226766       7      -1       0      -1      24      3.69273760     -0.64162186     -0.14865848
 N              17.55982267      1.48515154     14.95849536       7      -1       0       0      24      1.49992169     -0.09585522      0.97546953
 N              -1.31191853      3.59622457     14.98432368       7       0       0       0      24      4.83644566      2.34123159     -0.20222225
 N               1.25288461      3.64414121     14.98371889       7       0       0       0      24      0.31608516     -3.00138971     -0.56720054
 N               3.79244127      3.61264172     14.88572987       7       0       0       0      24     -1.77725057     -1.63991827     -0.03980278
 N               6.29744333      3.57518276     14.89838102       7       0       0       0      24     -1.45894181      1.68794703     -0.29124064
 N               8.81431620      3.64383660     14.94035599       7      -1       0       0      24     -2.03448293     -1.57394368     -0.71698046
 N              11.30766440      3.66827707     15.10113101       7      -1       0      -1      24     -0.46655489     -2.33505819     -1.10172328
 N              13.80707622      3.59233478     15.00529617       7      -1       0      -1      24      0.56339993      3.56542317      0.03018484
 N              16.34811697      3.63469961     15.02999431       7      -1       0      -1      24     -2.35640320     -1.44983683      0.15392015
 N              -2.52458262      5.83855926     14.98170148       7       0       0       0      24      1.54532189     -1.54025878     -0.14694839
 N              -0.01237388      5.76921727     14.95363673       7       0       0       0      24     -0.23070334      2.33175811     -0.33055448
 N               2.53851014      5.81113946     14.98408036       7       0       0       0      24     -2.17661825     -2.16987655     -0.63170101
 N               4.97873280      5.71542014     14.90361344       7       0       0       0      23      2.77764001      3.23668505      0.20027795
 N               7.56491933      5.75743111     14.87370876       7      -1       0       0      24     -0.03107082      1.81166734      0.33384374
 N              10.01236208      5.77153560     14.97893143       7      -1       0       0      24      2.18631474      2.49089558      0.14905023
 N              12.55663009      5.78526474     14.90017220       7      -1       0       0      24     -1.81432807      0.67896005      0.97841274
 N              15.04922488      5.84277127     14.98823244       7      -1       0       0      24      0.40835342     -2.38585654      0.59762905
 N              -3.79020910      7.98038605     15.01333110       7       0       0      -1      24      1.25056311     -0.47536972     -0.28403304
 N              -1.24625400      7.91271409     14.95397210       7       0       0       0      23     -0.36353086      4.26673898     -0.18752914
 N               1.17417434      8.01950609     15.01095910       7       0       0      -1      24      5.19780867     -4.75964639     -0.18242592
 N               3.78995279      7.95853021     15.06390270       7       0       0      -1      24     -2.54504874      0.68823357     -0.07465824
 N               6.27118119      7.77030598     15.45753310       7      -1       0      -1      23     -2.02651801      0.81712742      0.10682848
 N               8.85181010      7.93855223     15.10380712       7      -1       0      -1      23     -6.50376439      2.75238690      1.09910452
 N              11.25696098      8.01796425     14.96654016       7      -1       0       0      24      1.65856884     -4.23115897      0.52761415
 N              13.85702297      7.99018135     14.92060312       7      -1       0       0      24     -5.86863729      0.19067325      0.17922437
 N              -5.03317182     10.17484766     15.00642971       7       0      -1      -1      24      0.14142819     -2.13922517     -0.42813386
 N              -2.54412134     10.19850108     15.04048531       7       0      -1      -1      24      1.47107832     -6.30213349     -0.40599210
 N              -0.00371867     10.08437950     14.90997947       7       0      -1       0      24     -1.19154390      2.75215200      0.17468029
 N               2.49261434     10.12433987     14.88028920       7       0      -1       0      24      0.60013171     -0.15648354      0.57644500
 N               7.62455431     10.21276833     15.43659136       7      -1      -1      -1      24      1.92917424      1.01488764     -0.26252746
 N              10.06803926     10.12802529     14.98275345       7      -1      -1       0      24      1.17148864      2.34928343     -0.00151098
 N              12.59698315     10.17596937     14.97691527       7      -1      -1       0      24     -2.01335285     -1.49460021     -0.31916318
 N              -6.28679156     12.27382214     15.02362754       7       0      -1      -1      24      0.15757570      2.52973414      0.00959320
 N              -3.75622765     12.31783338     14.98379021       7       0      -1       0      24     -0.48986252     -0.73138367     -0.01952227
 N              -1.21480401     12.41376127     15.00811454       7       0      -1      -1      23     -2.76708214     -7.17859950     -0.10041524
 N               1.18954189     12.34045874     14.90816828       7       0      -1       0      24      4.28520526     -0.14681294      0.24291022
 N               3.82717826     12.32055995     15.00175418       7      -1      -1      -1      24     -6.01636573      2.26716029     -0.59187820
 N               6.28171443     12.26596554     15.15950716       7      -1      -1      -1      23     -2.18811132      3.12468788      0.29373827
 N               8.83303140     12.34927187     14.91816949       7      -1      -1       0      23     -1.02218891      0.46461905      0.64131226
 N              11.28120402     12.32279531     14.91965612       7      -1      -1       0      24      3.53700415      0.42201667     -0.03545727
 N              -7.53243740     14.43570696     14.89165202       7       0      -1       0      24      0.94851454      2.17433717      0.92229752
 N              -5.05370571     14.48945905     15.07629731       7       0      -1      -1      24      1.66324192     -0.73998891     -0.44417626
 N              -2.50197100     14.49681926     14.98897427       7       0      -1       0      24     -0.71428705     -1.88956579     -0.39649768
 N               0.00618270     14.45948359     14.95715000       7       0      -1       0      24     -0.81462113      1.27603458     -0.02309157
 N               2.43644620     14.48781068     14.96755655       7      -1      -1       0      24      5.25893207      2.32259369      0.03758068
 N               5.05565586     14.48945590     14.99077886       7      -1      -1       0      24     -4.80287954      0.44859948      0.02060517
 N               7.52985932     14.51511627     14.96750695       7      -1      -1       0      24      0.16619488     -0.18044470      1.13780702
 N              10.02607241     14.48104741     14.88421877       7      -1      -1       0      24      3.22410321      0.03636132      0.36785940
 N              -8.80312076     16.74752307     15.01023229       7       0      -1      -1      24      0.42977635     -6.29031958      0.25887460
 N              -6.25956104     16.64279404     15.06284516       7       0      -1      -1      24      0.23847825      1.77333654      0.01128749
 N              -3.78828098     16.65002077     14.98524767       7       0      -1       0      24      3.62843791      0.62856558     -0.52040609
 N              -1.31079233     16.66132602     15.01672276       7       0      -1      -1      24      2.59959681     -0.51380321     -0.23785028
 N               1.30338111     16.72083839     15.09317680       7      -1      -1      -1      24     -4.04703958     -4.21160346     -0.46911310
 N               3.73109943     16.64120168     15.00533846       7      -1      -1      -1      24      2.09389728      2.12660100     -0.48025522
 N               6.36553500     16.59831440     15.01111818       7      -1      -1      -1      24     -7.22520382      4.50924155      0.47095006
 N               8.75696008     16.65375204     14.95884454       7      -1      -1       0      24      2.11125571      0.49248556      0.82327846
 B               1.28644009      0.70343979     15.01715670       5       0       0      -1      24     -1.88858837      2.31933133     -0.20341271
 B               3.76285365      0.75056536     15.01952727       5       0       0      -1      24     -0.98474421     -2.08678733     -0.11071398
 B               6.31826714      0.73138879     14.93915327       5       0       0       0      24     -2.76597403     -1.92614472      0.57345860
 B               8.77075252      0.73429703     15.02639062       5       0       0      -1      24      1.39537873     -0.62440503      0.03686527
 B              11.34701185      0.66321754     15.00611910       5      -1       0      -1      24     -2.16136699      4.84263210      0.76265418
 B              13.78282615      0.80967913     14.95557717       5      -1       0       0      24      0.19459686     -3.68024992      0.91733837
 B              16.37838703      0.72529611     15.05174890       5      -1       0      -1      24     -2.93379084     -0.42733880     -0.78748359
 B              18.81882838      0.69775588     15.02112913       5      -1       0      -1      24      0.95068597      1.72999932     -0.82065205
 B               0.00831644      2.85778155     14.95460282       5       0       0       0      24     -0.12375725      1.27217348      0.41495835
 B               2.56275991      2.79900929     14.93800013       5       0       0       0      24     -2.28643958      6.82404104      0.07886217
 B               4.98745502      2.89033274     14.90073339       5       0       0       0      24      2.48111440     -1.11916797      0.20445321
 B               7.50635512      2.87132278     14.91542452       5       0       0       0      24      1.82742428      0.86239949      0.37310211
 B              10.00728135      2.90067421     14.95559015       5      -1       0       0      24      2.80091602     -0.60486489      1.36029960
 B              12.59552489      2.92774507     14.99376417       5      -1       0       0      24     -3.14852000     -1.45855952      0.85174981
 B              15.04084226      2.93754027     15.00664152       5      -1       0      -1      24      1.48151706     -1.41567833      0.21729220
 B              17.58475917      2.98684313     15.03654541       5      -1       0      -1      24     -1.77915511     -4.70665802     -0.55352936
 B              -1.25615189      5.07672693     14.94834102       5       0       0       0      24     -1.08946845      0.10638690      0.36759450
 B               1.17797655      5.03415104     14.92499464       5       0       0       0      24      3.49628952      1.63944031      0.64779091
 B               3.77370149      5.03621482     14.89398261       5       0       0       0      24     -1.38157752      0.23245303      0.22656323
 B               6.32919252      5.09481911     14.88688464       5       0       0       0      23     -2.15522708     -2.65641037     -0.11559137
 B               8.85405188      5.07746914     14.87291337       5      -1       0       0      24     -3.23177500     -1.31650536      0.52289732
 B              11.24618858      5.05976523     15.00039912       5      -1       0      -1      24      1.96699091      1.07493264     -0.18657029
 B              13.79175995      5.11332923     15.03136858       5      -1       0      -1      24      1.40456900     -1.48967386     -0.94552271
 B              16.37895097      4.98835918     15.01758722       5      -1       0      -1      24     -2.52473482      6.01649563     -0.21273286
 B              -2.47524933      7.30335165     14.95700091       5       0       0       0      24     -3.29658656     -2.86215020      0.41680750
 B               0.01708860      7.29984591     14.95439655       5       0       0       0      24     -1.65059699     -3.86191468      0.15376534
 B               2.51660429      7.19890575     14.97317638       5       0       0       0      23     -0.80214416      2.19173623      0.49457557
 B               4.95850236      7.23253419     15.11534215       5       0       0      -1      24      2.41477496     -3.36574500      0.10852975
 B               7.47053921      7.20239216     15.18105123       5      -1       0      -1      24      4.17178160     -1.45900827     -1.20329389
 B               9.95905944      7.25304446     15.05267176       5      -1       0      -1      24      5.17146984     -1.71486293     -0.94924628
 B              12.54329701      7.22033779     14.97754554       5      -1       0       0      24     -0.30924295      1.68833888     -0.86399521
 B              14.97773990      7.28617757     15.00049818       5      -1       0      -1      24      5.30175762     -2.31272880     -0.23631921
 B              -3.75828181      9.37170611     14.98854593       5       0      -1       0      24     -2.01149602      3.23354525      0.47001400
 B              -1.30427198      9.41306162     14.95712379       5       0      -1       0      24      2.11838782     -0.14041707      0.23320866
 B               1.26637915      9.34160281     14.91825945       5       0      -1       0      24     -1.34596322      5.27633620     -0.24694905
 B               3.77439851      9.42203523     15.14049693       5       0      -1      -1      24     -3.96114704     -0.49702736     -0.94815766
 B               8.84726272      9.46419351     15.18585802       5      -1      -1      -1      24     -0.67904307     -1.44102895     -0.14481076
 B              11.31557837      9.38738310     14.98261567       5      -1      -1       0      24      0.05469915      3.04985015     -0.24907964
 B              13.78360469      9.41306641     14.92319986       5      -1      -1       0      24      2.02641732      1.41848228      0.65944289
 B              -5.10761641     11.59923006     15.01233253       5       0      -1      -1      24      5.72660099     -0.92098160     -0.03717522
 B              -2.46292212     11.49723868     14.99084333       5       0      -1       0      24     -1.74335647      7.89861654      0.16795975
 B              -0.01576301     11.67272834     14.95410105       5       0      -1       0      24      0.26084419     -3.92974096     -0.26725617
 B               2.50133518     11.58036128     14.96014247       5       0      -1       0      23     -0.80889751      0.31294716     -0.59048751
 B               4.92459388     11.59360351     15.20343027       5      -1      -1      -1      23      4.83963609      0.22844382      0.05388844
 B               7.54801810     11.67671449     15.16331615       5      -1      -1      -1      24      1.59965739     -1.97921961      0.01072652
 B              10.09171241     11.65380026     14.92981772       5      -1      -1       0      23     -2.25568370     -3.33597053      0.16729134
 B              12.61611501     11.60059923     14.96205416       5      -1      -1       0      24     -4.42798068     -1.07313826      0.01672994
 B              -6.26145414     13.69328003     15.02232920       5       0      -1      -1      24     -0.94702057      2.85765879     -0.33692040
 B              -3.77151710     13.78433567     14.98434902       5       0      -1       0      24     -0.08017689     -1.20948301      0.52159303
 B              -1.28746505     13.70684313     14.96623339       5       0      -1       0      24      1.51254151      5.99355727      0.07769243
 B               1.29045368     13.80192947     14.93915105       5       0      -1       0      24     -3.67101642     -2.30635688      0.01832234
 B               3.77075779     13.77589621     14.97542888       5      -1      -1       0      24     -1.09703590      0.16273721      0.02342190
 B               6.20121844     13.82861605     15.07742737       5      -1      -1      -1      23      6.47993651     -4.08590079     -0.47068463
 B               8.85699109     13.79708027     14.97412318       5      -1      -1       0      23     -4.95100303     -1.15551553     -0.72410244
 B              11.31355921     13.75677095     14.89983762       5      -1      -1       0      24     -0.87053755     -0.03937053     -0.15624460
 B              -7.51446082     15.98143219     15.04430619       5       0      -1      -1      24     -0.97165007     -1.76186772     -0.88253208
 B              -4.94572175     15.94437176     15.02213593       5       0      -1      -1      24     -4.35608832     -1.07627560      0.37509454
 B              -2.50280626     15.87805385     14.94718936       5       0      -1       0      24     -1.05242369      2.60895849      0.64752454
 B              -0.00811869     15.90110440     15.00925675       5       0      -1      -1      24     -0.28833074      1.26599520      0.28314788
 B               2.46798106     16.01827476     15.01004332       5      -1      -1      -1      24      2.07353597     -3.68200772      0.05527615
 B               4.98976866     15.88358409     14.98780172       5      -1      -1       0      24      1.42624300      3.34643883      0.15045946
 B               7.51823571     16.01285182     15.07075484       5      -1      -1      -1      24      2.86876682     -5.73137520     -1.24504017
 B               9.99945898     15.85850164     14.97497613       5      -1      -1       0      24      0.84889428      4.62616437     -0.28160301
